  
       XFOIL         Version 6.99
  
 Calculated polar for: NACA 2412                                       
  
 1 1 Reynolds number fixed          Mach number fixed         
  
 xtrf =   1.000 (top)        1.000 (bottom)  
 Mach =   0.000     Re =     0.000 e 6     Ncrit =   9.000  9.000
  
   alpha    CL        CD       CDp       CM     Top_Xtr  Bot_Xtr  Top_Itr  Bot_Itr
  ------ -------- --------- --------- -------- -------- -------- -------- --------
  -5.000  -0.3441   0.00000  -0.00109  -0.0487   0.0000   0.0000   0.0000   0.0000
  -4.500  -0.2837   0.00000  -0.00108  -0.0494   0.0000   0.0000   0.0000   0.0000
  -4.000  -0.2233   0.00000  -0.00108  -0.0501   0.0000   0.0000   0.0000   0.0000
  -3.500  -0.1629   0.00000  -0.00107  -0.0507   0.0000   0.0000   0.0000   0.0000
  -3.000  -0.1024   0.00000  -0.00107  -0.0514   0.0000   0.0000   0.0000   0.0000
  -2.500  -0.0420   0.00000  -0.00107  -0.0521   0.0000   0.0000   0.0000   0.0000
  -2.000   0.0185   0.00000  -0.00107  -0.0528   0.0000   0.0000   0.0000   0.0000
  -1.500   0.0789   0.00000  -0.00107  -0.0535   0.0000   0.0000   0.0000   0.0000
  -1.000   0.1394   0.00000  -0.00107  -0.0542   0.0000   0.0000   0.0000   0.0000
  -0.500   0.1998   0.00000  -0.00107  -0.0549   0.0000   0.0000   0.0000   0.0000
   0.000   0.2602   0.00000  -0.00107  -0.0557   0.0000   0.0000   0.0000   0.0000
   0.500   0.3206   0.00000  -0.00107  -0.0564   0.0000   0.0000   0.0000   0.0000
   1.000   0.3810   0.00000  -0.00107  -0.0571   0.0000   0.0000   0.0000   0.0000
   1.500   0.4414   0.00000  -0.00107  -0.0578   0.0000   0.0000   0.0000   0.0000
   2.000   0.5017   0.00000  -0.00108  -0.0586   0.0000   0.0000   0.0000   0.0000
   2.500   0.5619   0.00000  -0.00108  -0.0593   0.0000   0.0000   0.0000   0.0000
   3.000   0.6222   0.00000  -0.00109  -0.0600   0.0000   0.0000   0.0000   0.0000
   3.500   0.6824   0.00000  -0.00109  -0.0608   0.0000   0.0000   0.0000   0.0000
   4.000   0.7425   0.00000  -0.00110  -0.0615   0.0000   0.0000   0.0000   0.0000
   4.500   0.8026   0.00000  -0.00111  -0.0623   0.0000   0.0000   0.0000   0.0000
   5.000   0.8626   0.00000  -0.00111  -0.0630   0.0000   0.0000   0.0000   0.0000
   5.500   0.9225   0.00000  -0.00112  -0.0638   0.0000   0.0000   0.0000   0.0000
   6.000   0.9824   0.00000  -0.00113  -0.0645   0.0000   0.0000   0.0000   0.0000
   6.500   1.0422   0.00000  -0.00114  -0.0653   0.0000   0.0000   0.0000   0.0000
   7.000   1.1019   0.00000  -0.00115  -0.0660   0.0000   0.0000   0.0000   0.0000
   7.500   1.1616   0.00000  -0.00116  -0.0668   0.0000   0.0000   0.0000   0.0000
   8.000   1.2211   0.00000  -0.00117  -0.0676   0.0000   0.0000   0.0000   0.0000
   8.500   1.2806   0.00000  -0.00118  -0.0683   0.0000   0.0000   0.0000   0.0000
   9.000   1.3400   0.00000  -0.00119  -0.0691   0.0000   0.0000   0.0000   0.0000
   9.500   1.3992   0.00000  -0.00121  -0.0699   0.0000   0.0000   0.0000   0.0000
  10.000   1.4584   0.00000  -0.00122  -0.0706   0.0000   0.0000   0.0000   0.0000
  10.500   1.5174   0.00000  -0.00123  -0.0714   0.0000   0.0000   0.0000   0.0000
  11.000   1.5763   0.00000  -0.00125  -0.0721   0.0000   0.0000   0.0000   0.0000
  11.500   1.6352   0.00000  -0.00126  -0.0729   0.0000   0.0000   0.0000   0.0000
  12.000   1.6938   0.00000  -0.00128  -0.0737   0.0000   0.0000   0.0000   0.0000
  12.500   1.7524   0.00000  -0.00130  -0.0744   0.0000   0.0000   0.0000   0.0000
  13.000   1.8108   0.00000  -0.00131  -0.0752   0.0000   0.0000   0.0000   0.0000
  13.500   1.8691   0.00000  -0.00133  -0.0759   0.0000   0.0000   0.0000   0.0000
  14.000   1.9273   0.00000  -0.00135  -0.0767   0.0000   0.0000   0.0000   0.0000
  14.500   1.9853   0.00000  -0.00136  -0.0774   0.0000   0.0000   0.0000   0.0000
  15.000   2.0431   0.00000  -0.00138  -0.0782   0.0000   0.0000   0.0000   0.0000
  -5.000  -0.3441   0.00000  -0.00109  -0.0487   0.0000   0.0000   0.0000   0.0000
  -4.500  -0.2837   0.00000  -0.00108  -0.0494   0.0000   0.0000   0.0000   0.0000
  -4.000  -0.2233   0.00000  -0.00108  -0.0501   0.0000   0.0000   0.0000   0.0000
  -3.500  -0.1629   0.00000  -0.00107  -0.0507   0.0000   0.0000   0.0000   0.0000
  -3.000  -0.1024   0.00000  -0.00107  -0.0514   0.0000   0.0000   0.0000   0.0000
  -2.500  -0.0420   0.00000  -0.00107  -0.0521   0.0000   0.0000   0.0000   0.0000
  -2.000   0.0185   0.00000  -0.00107  -0.0528   0.0000   0.0000   0.0000   0.0000
  -1.500   0.0789   0.00000  -0.00107  -0.0535   0.0000   0.0000   0.0000   0.0000
  -1.000   0.1394   0.00000  -0.00107  -0.0542   0.0000   0.0000   0.0000   0.0000
  -0.500   0.1998   0.00000  -0.00107  -0.0549   0.0000   0.0000   0.0000   0.0000
   0.000   0.2602   0.00000  -0.00107  -0.0557   0.0000   0.0000   0.0000   0.0000
   0.500   0.3206   0.00000  -0.00107  -0.0564   0.0000   0.0000   0.0000   0.0000
   1.000   0.3810   0.00000  -0.00107  -0.0571   0.0000   0.0000   0.0000   0.0000
   1.500   0.4414   0.00000  -0.00107  -0.0578   0.0000   0.0000   0.0000   0.0000
   2.000   0.5017   0.00000  -0.00108  -0.0586   0.0000   0.0000   0.0000   0.0000
   2.500   0.5619   0.00000  -0.00108  -0.0593   0.0000   0.0000   0.0000   0.0000
   3.000   0.6222   0.00000  -0.00109  -0.0600   0.0000   0.0000   0.0000   0.0000
   3.500   0.6824   0.00000  -0.00109  -0.0608   0.0000   0.0000   0.0000   0.0000
   4.000   0.7425   0.00000  -0.00110  -0.0615   0.0000   0.0000   0.0000   0.0000
   4.500   0.8026   0.00000  -0.00111  -0.0623   0.0000   0.0000   0.0000   0.0000
   5.000   0.8626   0.00000  -0.00111  -0.0630   0.0000   0.0000   0.0000   0.0000
   5.500   0.9225   0.00000  -0.00112  -0.0638   0.0000   0.0000   0.0000   0.0000
   6.000   0.9824   0.00000  -0.00113  -0.0645   0.0000   0.0000   0.0000   0.0000
   6.500   1.0422   0.00000  -0.00114  -0.0653   0.0000   0.0000   0.0000   0.0000
   7.000   1.1019   0.00000  -0.00115  -0.0660   0.0000   0.0000   0.0000   0.0000
   7.500   1.1616   0.00000  -0.00116  -0.0668   0.0000   0.0000   0.0000   0.0000
   8.000   1.2211   0.00000  -0.00117  -0.0676   0.0000   0.0000   0.0000   0.0000
   8.500   1.2806   0.00000  -0.00118  -0.0683   0.0000   0.0000   0.0000   0.0000
   9.000   1.3400   0.00000  -0.00119  -0.0691   0.0000   0.0000   0.0000   0.0000
   9.500   1.3992   0.00000  -0.00121  -0.0699   0.0000   0.0000   0.0000   0.0000
  10.000   1.4584   0.00000  -0.00122  -0.0706   0.0000   0.0000   0.0000   0.0000
  10.500   1.5174   0.00000  -0.00123  -0.0714   0.0000   0.0000   0.0000   0.0000
  11.000   1.5763   0.00000  -0.00125  -0.0721   0.0000   0.0000   0.0000   0.0000
  11.500   1.6352   0.00000  -0.00126  -0.0729   0.0000   0.0000   0.0000   0.0000
  12.000   1.6938   0.00000  -0.00128  -0.0737   0.0000   0.0000   0.0000   0.0000
  12.500   1.7524   0.00000  -0.00130  -0.0744   0.0000   0.0000   0.0000   0.0000
  13.000   1.8108   0.00000  -0.00131  -0.0752   0.0000   0.0000   0.0000   0.0000
  13.500   1.8691   0.00000  -0.00133  -0.0759   0.0000   0.0000   0.0000   0.0000
  14.000   1.9273   0.00000  -0.00135  -0.0767   0.0000   0.0000   0.0000   0.0000
  14.500   1.9853   0.00000  -0.00136  -0.0774   0.0000   0.0000   0.0000   0.0000
  15.000   2.0431   0.00000  -0.00138  -0.0782   0.0000   0.0000   0.0000   0.0000
