  
       XFOIL         Version 6.99
  
 Calculated polar for: NACA 0006                                       
  
 1 1 Reynolds number fixed          Mach number fixed         
  
 xtrf =   1.000 (top)        1.000 (bottom)  
 Mach =   0.000     Re =     0.000 e 6     Ncrit =   9.000  9.000
  
   alpha    CL        CD       CDp       CM     Top_Xtr  Bot_Xtr  Top_Itr  Bot_Itr
  ------ -------- --------- --------- -------- -------- -------- -------- --------
  -5.000  -0.5751   0.00000  -0.00087   0.0029   0.0000   0.0000   0.0000   0.0000
  -4.500  -0.5178   0.00000  -0.00083   0.0026   0.0000   0.0000   0.0000   0.0000
  -4.000  -0.4603   0.00000  -0.00080   0.0023   0.0000   0.0000   0.0000   0.0000
  -3.500  -0.4029   0.00000  -0.00077   0.0020   0.0000   0.0000   0.0000   0.0000
  -3.000  -0.3454   0.00000  -0.00074   0.0017   0.0000   0.0000   0.0000   0.0000
  -2.500  -0.2878   0.00000  -0.00072   0.0014   0.0000   0.0000   0.0000   0.0000
  -2.000  -0.2303   0.00000  -0.00070   0.0012   0.0000   0.0000   0.0000   0.0000
  -1.500  -0.1727   0.00000  -0.00069   0.0009   0.0000   0.0000   0.0000   0.0000
  -1.000  -0.1152   0.00000  -0.00068   0.0006   0.0000   0.0000   0.0000   0.0000
  -0.500  -0.0576   0.00000  -0.00067   0.0003   0.0000   0.0000   0.0000   0.0000
   0.000   0.0000   0.00000  -0.00067  -0.0000   0.0000   0.0000   0.0000   0.0000
   0.500   0.0576   0.00000  -0.00067  -0.0003   0.0000   0.0000   0.0000   0.0000
   1.000   0.1152   0.00000  -0.00068  -0.0006   0.0000   0.0000   0.0000   0.0000
   1.500   0.1727   0.00000  -0.00069  -0.0009   0.0000   0.0000   0.0000   0.0000
   2.000   0.2303   0.00000  -0.00070  -0.0012   0.0000   0.0000   0.0000   0.0000
   2.500   0.2878   0.00000  -0.00072  -0.0014   0.0000   0.0000   0.0000   0.0000
   3.000   0.3454   0.00000  -0.00074  -0.0017   0.0000   0.0000   0.0000   0.0000
   3.500   0.4029   0.00000  -0.00077  -0.0020   0.0000   0.0000   0.0000   0.0000
   4.000   0.4603   0.00000  -0.00080  -0.0023   0.0000   0.0000   0.0000   0.0000
   4.500   0.5178   0.00000  -0.00083  -0.0026   0.0000   0.0000   0.0000   0.0000
   5.000   0.5751   0.00000  -0.00087  -0.0029   0.0000   0.0000   0.0000   0.0000
   5.500   0.6325   0.00000  -0.00091  -0.0032   0.0000   0.0000   0.0000   0.0000
   6.000   0.6898   0.00000  -0.00096  -0.0035   0.0000   0.0000   0.0000   0.0000
   6.500   0.7470   0.00000  -0.00101  -0.0037   0.0000   0.0000   0.0000   0.0000
   7.000   0.8042   0.00000  -0.00106  -0.0040   0.0000   0.0000   0.0000   0.0000
   7.500   0.8614   0.00000  -0.00112  -0.0043   0.0000   0.0000   0.0000   0.0000
   8.000   0.9185   0.00000  -0.00118  -0.0046   0.0000   0.0000   0.0000   0.0000
   8.500   0.9755   0.00000  -0.00124  -0.0049   0.0000   0.0000   0.0000   0.0000
   9.000   1.0324   0.00000  -0.00131  -0.0051   0.0000   0.0000   0.0000   0.0000
   9.500   1.0892   0.00000  -0.00138  -0.0054   0.0000   0.0000   0.0000   0.0000
  10.000   1.1460   0.00000  -0.00145  -0.0057   0.0000   0.0000   0.0000   0.0000
  10.500   1.2027   0.00000  -0.00153  -0.0060   0.0000   0.0000   0.0000   0.0000
  11.000   1.2593   0.00000  -0.00161  -0.0062   0.0000   0.0000   0.0000   0.0000
  11.500   1.3158   0.00000  -0.00170  -0.0065   0.0000   0.0000   0.0000   0.0000
  12.000   1.3722   0.00000  -0.00178  -0.0068   0.0000   0.0000   0.0000   0.0000
  12.500   1.4285   0.00000  -0.00187  -0.0070   0.0000   0.0000   0.0000   0.0000
  13.000   1.4847   0.00000  -0.00197  -0.0073   0.0000   0.0000   0.0000   0.0000
  13.500   1.5408   0.00000  -0.00207  -0.0075   0.0000   0.0000   0.0000   0.0000
  14.000   1.5968   0.00000  -0.00217  -0.0078   0.0000   0.0000   0.0000   0.0000
  14.500   1.6526   0.00000  -0.00227  -0.0081   0.0000   0.0000   0.0000   0.0000
  15.000   1.7084   0.00000  -0.00237  -0.0083   0.0000   0.0000   0.0000   0.0000

  -5.000  -0.5751   0.00000  -0.00087   0.0029   0.0000   0.0000   0.0000   0.0000
  -4.500  -0.5178   0.00000  -0.00083   0.0026   0.0000   0.0000   0.0000   0.0000
  -4.000  -0.4603   0.00000  -0.00080   0.0023   0.0000   0.0000   0.0000   0.0000
  -3.500  -0.4029   0.00000  -0.00077   0.0020   0.0000   0.0000   0.0000   0.0000
  -3.000  -0.3454   0.00000  -0.00074   0.0017   0.0000   0.0000   0.0000   0.0000
  -2.500  -0.2878   0.00000  -0.00072   0.0014   0.0000   0.0000   0.0000   0.0000
  -2.000  -0.2303   0.00000  -0.00070   0.0012   0.0000   0.0000   0.0000   0.0000
  -1.500  -0.1727   0.00000  -0.00069   0.0009   0.0000   0.0000   0.0000   0.0000
  -1.000  -0.1152   0.00000  -0.00068   0.0006   0.0000   0.0000   0.0000   0.0000
  -0.500  -0.0576   0.00000  -0.00067   0.0003   0.0000   0.0000   0.0000   0.0000
   0.000   0.0000   0.00000  -0.00067  -0.0000   0.0000   0.0000   0.0000   0.0000
   0.500   0.0576   0.00000  -0.00067  -0.0003   0.0000   0.0000   0.0000   0.0000
   1.000   0.1152   0.00000  -0.00068  -0.0006   0.0000   0.0000   0.0000   0.0000
   1.500   0.1727   0.00000  -0.00069  -0.0009   0.0000   0.0000   0.0000   0.0000
   2.000   0.2303   0.00000  -0.00070  -0.0012   0.0000   0.0000   0.0000   0.0000
   2.500   0.2878   0.00000  -0.00072  -0.0014   0.0000   0.0000   0.0000   0.0000
   3.000   0.3454   0.00000  -0.00074  -0.0017   0.0000   0.0000   0.0000   0.0000
   3.500   0.4029   0.00000  -0.00077  -0.0020   0.0000   0.0000   0.0000   0.0000
   4.000   0.4603   0.00000  -0.00080  -0.0023   0.0000   0.0000   0.0000   0.0000
   4.500   0.5178   0.00000  -0.00083  -0.0026   0.0000   0.0000   0.0000   0.0000
   5.000   0.5751   0.00000  -0.00087  -0.0029   0.0000   0.0000   0.0000   0.0000
   5.500   0.6325   0.00000  -0.00091  -0.0032   0.0000   0.0000   0.0000   0.0000
   6.000   0.6898   0.00000  -0.00096  -0.0035   0.0000   0.0000   0.0000   0.0000
   6.500   0.7470   0.00000  -0.00101  -0.0037   0.0000   0.0000   0.0000   0.0000
   7.000   0.8042   0.00000  -0.00106  -0.0040   0.0000   0.0000   0.0000   0.0000
   7.500   0.8614   0.00000  -0.00112  -0.0043   0.0000   0.0000   0.0000   0.0000
   8.000   0.9185   0.00000  -0.00118  -0.0046   0.0000   0.0000   0.0000   0.0000
   8.500   0.9755   0.00000  -0.00124  -0.0049   0.0000   0.0000   0.0000   0.0000
   9.000   1.0324   0.00000  -0.00131  -0.0051   0.0000   0.0000   0.0000   0.0000
   9.500   1.0892   0.00000  -0.00138  -0.0054   0.0000   0.0000   0.0000   0.0000
  10.000   1.1460   0.00000  -0.00145  -0.0057   0.0000   0.0000   0.0000   0.0000
  10.500   1.2027   0.00000  -0.00153  -0.0060   0.0000   0.0000   0.0000   0.0000
  11.000   1.2593   0.00000  -0.00161  -0.0062   0.0000   0.0000   0.0000   0.0000
  11.500   1.3158   0.00000  -0.00170  -0.0065   0.0000   0.0000   0.0000   0.0000
  12.000   1.3722   0.00000  -0.00178  -0.0068   0.0000   0.0000   0.0000   0.0000
  12.500   1.4285   0.00000  -0.00187  -0.0070   0.0000   0.0000   0.0000   0.0000
  13.000   1.4847   0.00000  -0.00197  -0.0073   0.0000   0.0000   0.0000   0.0000
  13.500   1.5408   0.00000  -0.00207  -0.0075   0.0000   0.0000   0.0000   0.0000
  14.000   1.5968   0.00000  -0.00217  -0.0078   0.0000   0.0000   0.0000   0.0000
  14.500   1.6526   0.00000  -0.00227  -0.0081   0.0000   0.0000   0.0000   0.0000
  15.000   1.7084   0.00000  -0.00237  -0.0083   0.0000   0.0000   0.0000   0.0000
