
 ===================================================
  XFOIL Version 6.99
  Copyright (C) 2000   Mark Drela, Harold Youngren

  This software comes with ABSOLUTELY NO WARRANTY,
    subject to the GNU General Public License.

  Caveat computor
 ===================================================

 File  xfoil.def  not found

   QUIT    Exit program

  .OPER    Direct operating point(s)
  .MDES    Complex mapping design routine
  .QDES    Surface speed design routine
  .GDES    Geometry design routine

   SAVE f  Write airfoil to labeled coordinate file
   PSAV f  Write airfoil to plain coordinate file
   ISAV f  Write airfoil to ISES coordinate file
   MSAV f  Write airfoil to MSES coordinate file
   REVE    Reverse written-airfoil node ordering
   DELI i  Change written-airfoil file delimiters

   LOAD f  Read buffer airfoil from coordinate file
   NACA i  Set NACA 4,5-digit airfoil and buffer airfoil
   INTE    Set buffer airfoil by interpolating two airfoils
   NORM    Buffer airfoil normalization toggle
   HALF    Halve the number of points in buffer airfoil
   XYCM rr Change CM reference location, currently  0.25000 0.00000

   BEND    Display structural properties of current airfoil

   PCOP    Set current-airfoil panel nodes directly from buffer airfoil points
   PANE    Set current-airfoil panel nodes ( 160 ) based on curvature
  .PPAR    Show/change paneling

  .PLOP    Plotting options

   WDEF f  Write  current-settings file
   RDEF f  Reread current-settings file
   NAME s  Specify new airfoil name
   NINC    Increment name version number

   Z       Zoom    | (available in all menus)
   U       Unzoom  | 

 XFOIL   c>  
 Labeled airfoil file.  Name:  NACA 0012                                       

 Number of input coordinate points: 201
 Counterclockwise ordering
 Max thickness =     0.120034  at x =   0.301
 Max camber    =     0.000000  at x =   0.020

  LE  x,y  =   0.00000   0.00000  |   Chord =   1.00000
  TE  x,y  =   1.00000   0.00000  |

 Current airfoil nodes set from buffer airfoil nodes ( 201 )

 XFOIL   c>  
 Blunt trailing edge.  Gap =  0.00252

 Paneling parameters used...
   Number of panel nodes       160
   Panel bunching parameter    1.000
   TE/LE panel density ratio   0.150
   Refined-area/LE panel density ratio    0.200
   Top    side refined area x/c limits  1.000 1.000
   Bottom side refined area x/c limits  1.000 1.000

 XFOIL   c>  
.OPERi   c>  
 M  =    0.0000
 Re =  0.1000E+07

.OPERv   c>  
 Polar  1 newly created for accumulation
 Airfoil archived with polar: NACA 0012                                       

Enter  polar save filename  OR  <return> for no file   s>  
 New polar save file available

Enter  polar dump filename  OR  <return> for no file   s>  
 Polar dump file will NOT be written

 Polar accumulation enabled

.OPERva   c>   Calculating unit vorticity distributions ...
 Calculating wake trajectory ...
 Calculating source influence matrix ...

 Solving BL system ...

 Initializing BL ...
    side            1  ...
 MRCHUE: Inverse mode at  62     Hk =   4.242
 MRCHUE: Inverse mode at  63     Hk =   5.014
 MRCHUE: Inverse mode at  64     Hk =   5.776
 MRCHUE: Inverse mode at  65     Hk =   3.750
 MRCHUE: Inverse mode at  66     Hk =   2.500
    side            2  ...
 MRCHUE: Inverse mode at  49     Hk =   2.500
 MRCHUE: Inverse mode at  84     Hk =   2.500

 Side 1  free  transition at x/c =  0.7956   65
 Side 2  free  transition at x/c =  0.4296   49

   1   rms: 0.1097E+00   max: -.1287E+01   C at   49  2   RLX: 0.389
       a = -2.000      CL = -0.2385
      Cm =  0.0030     CD =  0.00564   =>   CDf =  0.00490    CDp =  0.00074

 Side 1  free  transition at x/c =  0.8049   65
 Side 2  free  transition at x/c =  0.4403   50

   2   rms: 0.8016E-01   max: -.8395E+00   C at   50  2   RLX: 0.596
       a = -2.000      CL = -0.2287
      Cm =  0.0007     CD =  0.00588   =>   CDf =  0.00485    CDp =  0.00102

 Side 1  free  transition at x/c =  0.8365   67
 Side 2  free  transition at x/c =  0.4554   50

   3   rms: 0.9430E-01   max: -.1850E+01   C at   67  1   RLX: 0.270
       a = -2.000      CL = -0.2226
      Cm = -0.0014     CD =  0.00567   =>   CDf =  0.00454    CDp =  0.00113

 Side 1  free  transition at x/c =  0.8381   67
 Side 2  free  transition at x/c =  0.4598   51

   4   rms: 0.3880E-01   max: -.4325E+00   C at   51  2
       a = -2.000      CL = -0.2168
      Cm = -0.0023     CD =  0.00582   =>   CDf =  0.00460    CDp =  0.00123

 Side 1  free  transition at x/c =  0.8918   71
 Side 2  free  transition at x/c =  0.4706   51

   5   rms: 0.3090E-01   max: 0.4824E+00   C at   71  1
       a = -2.000      CL = -0.2136
      Cm = -0.0031     CD =  0.00581   =>   CDf =  0.00433    CDp =  0.00149

 Side 1  free  transition at x/c =  0.8701   69
 Side 2  free  transition at x/c =  0.4736   52

   6   rms: 0.5510E-02   max: -.6144E-01   D at   72  1
       a = -2.000      CL = -0.2142
      Cm = -0.0030     CD =  0.00580   =>   CDf =  0.00438    CDp =  0.00142

 Side 1  free  transition at x/c =  0.8675   69
 Side 2  free  transition at x/c =  0.4742   52

   7   rms: 0.2924E-03   max: -.5100E-02   C at   69  1
       a = -2.000      CL = -0.2142
      Cm = -0.0030     CD =  0.00580   =>   CDf =  0.00437    CDp =  0.00143

 Side 1  free  transition at x/c =  0.8676   69
 Side 2  free  transition at x/c =  0.4741   52

   8   rms: 0.9940E-06   max: -.8971E-05   C at   52  2
       a = -2.000      CL = -0.2142
      Cm = -0.0030     CD =  0.00580   =>   CDf =  0.00437    CDp =  0.00143
      9.000    3.4384   0.005804   0.000000   0.000000   0.000000    0.8676     #

 Point added to stored polar  1
 Point written to save file  CLv_NACA_0012_Re1e6.dat                         
 Dump file unspecified or not available
 Calculating wake trajectory ...
 Calculating source influence matrix ...

 Solving BL system ...

 Side 1  free  transition at x/c =  0.8676   69
 Side 2  free  transition at x/c =  0.4741   52

   1   rms: 0.1243E+00   max: -.1603E+01   C at   52  2   RLX: 0.312
       a = -1.500      CL = -0.1978
      Cm = -0.0027     CD =  0.00569   =>   CDf =  0.00437    CDp =  0.00132

 Side 1  free  transition at x/c =  0.8539   68
 Side 2  free  transition at x/c =  0.4859   52

   2   rms: 0.6629E-01   max: -.6997E+00   C at   52  2   RLX: 0.715
       a = -1.500      CL = -0.1700
      Cm = -0.0026     CD =  0.00571   =>   CDf =  0.00442    CDp =  0.00129

 Side 1  free  transition at x/c =  0.8326   68
 Side 2  free  transition at x/c =  0.5172   53

   3   rms: 0.2070E-01   max: -.2434E+00   C at   53  2
       a = -1.500      CL = -0.1603
      Cm = -0.0023     CD =  0.00565   =>   CDf =  0.00437    CDp =  0.00128

 Side 1  free  transition at x/c =  0.8280   68
 Side 2  free  transition at x/c =  0.5322   54

   4   rms: 0.5765E-02   max: 0.1226E+00   C at   54  2
       a = -1.500      CL = -0.1609
      Cm = -0.0022     CD =  0.00561   =>   CDf =  0.00430    CDp =  0.00131

 Side 1  free  transition at x/c =  0.8283   68
 Side 2  free  transition at x/c =  0.5285   54

   5   rms: 0.2564E-03   max: -.5334E-02   C at   54  2
       a = -1.500      CL = -0.1609
      Cm = -0.0022     CD =  0.00561   =>   CDf =  0.00431    CDp =  0.00130

 Side 1  free  transition at x/c =  0.8283   68
 Side 2  free  transition at x/c =  0.5286   54

   6   rms: 0.7574E-06   max: -.1225E-04   C at   54  2
       a = -1.500      CL = -0.1609
      Cm = -0.0022     CD =  0.00561   =>   CDf =  0.00431    CDp =  0.00130
      9.000    3.3537   0.005609   0.000000   0.000000   0.000000    0.8283     #

 Point added to stored polar  1
 Point written to save file  CLv_NACA_0012_Re1e6.dat                         
 Dump file unspecified or not available
 Calculating wake trajectory ...
 Calculating source influence matrix ...

 Solving BL system ...

 Side 1  free  transition at x/c =  0.8283   68
 Side 2  free  transition at x/c =  0.5286   54

   1   rms: 0.1225E+00   max: -.1629E+01   C at   54  2   RLX: 0.307
       a = -1.000      CL = -0.1446
      Cm = -0.0019     CD =  0.00556   =>   CDf =  0.00431    CDp =  0.00125

 Side 1  free  transition at x/c =  0.8150   67
 Side 2  free  transition at x/c =  0.5384   55

   2   rms: 0.8354E-01   max: -.7356E+00   C at   55  2   RLX: 0.680
       a = -1.000      CL = -0.1194
      Cm = -0.0016     CD =  0.00547   =>   CDf =  0.00436    CDp =  0.00111

 Side 1  free  transition at x/c =  0.7918   66
 Side 2  free  transition at x/c =  0.5554   56

   3   rms: 0.4245E-01   max: -.4592E+00   C at   56  2
       a = -1.000      CL = -0.1078
      Cm = -0.0014     CD =  0.00544   =>   CDf =  0.00443    CDp =  0.00100

 Side 1  free  transition at x/c =  0.7849   66
 Side 2  free  transition at x/c =  0.5906   57

   4   rms: 0.9435E-02   max: 0.1500E+00   C at   57  2
       a = -1.000      CL = -0.1072
      Cm = -0.0014     CD =  0.00550   =>   CDf =  0.00426    CDp =  0.00124

 Side 1  free  transition at x/c =  0.7848   66
 Side 2  free  transition at x/c =  0.5830   56

   5   rms: 0.1032E-02   max: 0.1572E-01   C at   56  2
       a = -1.000      CL = -0.1074
      Cm = -0.0014     CD =  0.00549   =>   CDf =  0.00428    CDp =  0.00121

 Side 1  free  transition at x/c =  0.7848   66
 Side 2  free  transition at x/c =  0.5827   56

   6   rms: 0.1113E-04   max: 0.2214E-03   C at   56  2
       a = -1.000      CL = -0.1074
      Cm = -0.0014     CD =  0.00549   =>   CDf =  0.00428    CDp =  0.00121
      9.000    3.2995   0.005486   0.000000   0.000000   0.000000    0.7848     #

 Point added to stored polar  1
 Point written to save file  CLv_NACA_0012_Re1e6.dat                         
 Dump file unspecified or not available
 Calculating wake trajectory ...
 Calculating source influence matrix ...

 Solving BL system ...

 Side 1  free  transition at x/c =  0.7848   66
 Side 2  free  transition at x/c =  0.5827   56

   1   rms: 0.1123E+00   max: -.1399E+01   C at   56  2   RLX: 0.357
       a = -0.500      CL = -0.0878
      Cm = -0.0013     CD =  0.00545   =>   CDf =  0.00428    CDp =  0.00117

 Side 1  free  transition at x/c =  0.7656   65
 Side 2  free  transition at x/c =  0.6001   57

   2   rms: 0.7014E-01   max: -.8725E+00   C at   57  2   RLX: 0.573
       a = -0.500      CL = -0.0679
      Cm = -0.0010     CD =  0.00545   =>   CDf =  0.00429    CDp =  0.00116

 Side 1  free  transition at x/c =  0.7476   64
 Side 2  free  transition at x/c =  0.6186   58

   3   rms: 0.2876E-01   max: -.3531E+00   C at   58  2
       a = -0.500      CL = -0.0532
      Cm = -0.0008     CD =  0.00544   =>   CDf =  0.00429    CDp =  0.00115

 Side 1  free  transition at x/c =  0.7361   63
 Side 2  free  transition at x/c =  0.6361   59

   4   rms: 0.2888E-02   max: -.4594E-01   C at   63  1
       a = -0.500      CL = -0.0537
      Cm = -0.0007     CD =  0.00542   =>   CDf =  0.00427    CDp =  0.00115

 Side 1  free  transition at x/c =  0.7372   63
 Side 2  free  transition at x/c =  0.6355   59

   5   rms: 0.3261E-04   max: 0.6148E-03   C at   59  2
       a = -0.500      CL = -0.0537
      Cm = -0.0007     CD =  0.00542   =>   CDf =  0.00427    CDp =  0.00115
      9.000    3.2663   0.005423   0.000000   0.000000   0.000000    0.7372     #

 Point added to stored polar  1
 Point written to save file  CLv_NACA_0012_Re1e6.dat                         
 Dump file unspecified or not available
 Calculating wake trajectory ...
 Calculating source influence matrix ...

 Solving BL system ...

 Side 1  free  transition at x/c =  0.7372   63
 Side 2  free  transition at x/c =  0.6355   59

   1   rms: 0.1067E+00   max: -.1210E+01   C at   59  2   RLX: 0.413
       a =  0.000      CL = -0.0307
      Cm = -0.0006     CD =  0.00540   =>   CDf =  0.00427    CDp =  0.00113

 Side 1  free  transition at x/c =  0.7127   63
 Side 2  free  transition at x/c =  0.6546   59

   2   rms: 0.5634E-01   max: 0.4980E+00   C at   63  1
       a =  0.000      CL =  0.0014
      Cm = -0.0003     CD =  0.00549   =>   CDf =  0.00430    CDp =  0.00118

 Side 1  free  transition at x/c =  0.6831   61
 Side 2  free  transition at x/c =  0.6932   62

   3   rms: 0.1065E-01   max: -.1535E+00   C at   61  1
       a =  0.000      CL = -0.0001
      Cm =  0.0000     CD =  0.00540   =>   CDf =  0.00427    CDp =  0.00113

 Side 1  free  transition at x/c =  0.6872   61
 Side 2  free  transition at x/c =  0.6871   61

   4   rms: 0.6143E-03   max: 0.1012E-01   C at   61  1
       a =  0.000      CL = -0.0000
      Cm =  0.0000     CD =  0.00540   =>   CDf =  0.00427    CDp =  0.00114

 Side 1  free  transition at x/c =  0.6869   61
 Side 2  free  transition at x/c =  0.6869   61

   5   rms: 0.2353E-05   max: -.4162E-04   C at   61  2
       a =  0.000      CL =  0.0000
      Cm = -0.0000     CD =  0.00540   =>   CDf =  0.00427    CDp =  0.00114
      9.000    3.2460   0.005404   0.000000   0.000000   0.000000    0.6869     #

 Point added to stored polar  1
 Point written to save file  CLv_NACA_0012_Re1e6.dat                         
 Dump file unspecified or not available
 Calculating wake trajectory ...
 Calculating source influence matrix ...

 Solving BL system ...

 Side 1  free  transition at x/c =  0.6869   61
 Side 2  free  transition at x/c =  0.6869   61

   1   rms: 0.1050E+00   max: 0.1015E+01   C at   61  1   RLX: 0.494
       a =  0.500      CL =  0.0275
      Cm =  0.0001     CD =  0.00541   =>   CDf =  0.00427    CDp =  0.00114

 Side 1  free  transition at x/c =  0.6564   60
 Side 2  free  transition at x/c =  0.7125   63

   2   rms: 0.5645E-01   max: -.6681E+00   C at   63  2   RLX: 0.748
       a =  0.500      CL =  0.0465
      Cm =  0.0007     CD =  0.00544   =>   CDf =  0.00428    CDp =  0.00117

 Side 1  free  transition at x/c =  0.6402   60
 Side 2  free  transition at x/c =  0.7266   63

   3   rms: 0.1857E-01   max: -.2831E+00   C at   63  2
       a =  0.500      CL =  0.0535
      Cm =  0.0007     CD =  0.00542   =>   CDf =  0.00429    CDp =  0.00113

 Side 1  free  transition at x/c =  0.6358   59
 Side 2  free  transition at x/c =  0.7355   63

   4   rms: 0.3145E-02   max: -.6545E-01   C at   63  2
       a =  0.500      CL =  0.0537
      Cm =  0.0007     CD =  0.00542   =>   CDf =  0.00427    CDp =  0.00115

 Side 1  free  transition at x/c =  0.6355   59
 Side 2  free  transition at x/c =  0.7372   63

   5   rms: 0.1841E-04   max: -.2786E-03   D at   65  2
       a =  0.500      CL =  0.0537
      Cm =  0.0007     CD =  0.00542   =>   CDf =  0.00427    CDp =  0.00115
      9.000    3.2356   0.005423   0.000000   0.000000   0.000000    0.6355     #

 Point added to stored polar  1
 Point written to save file  CLv_NACA_0012_Re1e6.dat                         
 Dump file unspecified or not available
 Calculating wake trajectory ...
 Calculating source influence matrix ...

 Solving BL system ...

 Side 1  free  transition at x/c =  0.6355   59
 Side 2  free  transition at x/c =  0.7372   63

   1   rms: 0.1066E+00   max: 0.1210E+01   C at   59  1   RLX: 0.573
       a =  1.000      CL =  0.0856
      Cm =  0.0009     CD =  0.00546   =>   CDf =  0.00427    CDp =  0.00119

 Side 1  free  transition at x/c =  0.6002   57
 Side 2  free  transition at x/c =  0.7666   65

   2   rms: 0.4127E-01   max: -.4423E+00   C at   65  2
       a =  1.000      CL =  0.1077
      Cm =  0.0014     CD =  0.00546   =>   CDf =  0.00429    CDp =  0.00118

 Side 1  free  transition at x/c =  0.5795   56
 Side 2  free  transition at x/c =  0.7823   66

   3   rms: 0.6897E-02   max: -.1205E+00   C at   56  1
       a =  1.000      CL =  0.1074
      Cm =  0.0014     CD =  0.00548   =>   CDf =  0.00430    CDp =  0.00118

 Side 1  free  transition at x/c =  0.5827   56
 Side 2  free  transition at x/c =  0.7848   66

   4   rms: 0.1433E-03   max: -.2322E-02   C at   66  2
       a =  1.000      CL =  0.1074
      Cm =  0.0014     CD =  0.00549   =>   CDf =  0.00428    CDp =  0.00121

 Side 1  free  transition at x/c =  0.5827   56
 Side 2  free  transition at x/c =  0.7848   66

   5   rms: 0.3091E-06   max: 0.2646E-05   C at   66  2
       a =  1.000      CL =  0.1074
      Cm =  0.0014     CD =  0.00549   =>   CDf =  0.00428    CDp =  0.00121
      9.000    3.2261   0.005486   0.000000   0.000000   0.000000    0.5827     #

 Point added to stored polar  1
 Point written to save file  CLv_NACA_0012_Re1e6.dat                         
 Dump file unspecified or not available
 Calculating wake trajectory ...
 Calculating source influence matrix ...

 Solving BL system ...

 Side 1  free  transition at x/c =  0.5827   56
 Side 2  free  transition at x/c =  0.7848   66

   1   rms: 0.1121E+00   max: 0.1397E+01   C at   56  1   RLX: 0.555
       a =  1.500      CL =  0.1378
      Cm =  0.0017     CD =  0.00554   =>   CDf =  0.00425    CDp =  0.00129

 Side 1  free  transition at x/c =  0.5481   55
 Side 2  free  transition at x/c =  0.8068   67

   2   rms: 0.4801E-01   max: -.5162E+00   C at   67  2   RLX: 0.969
       a =  1.500      CL =  0.1600
      Cm =  0.0022     CD =  0.00556   =>   CDf =  0.00434    CDp =  0.00122

 Side 1  free  transition at x/c =  0.5259   54
 Side 2  free  transition at x/c =  0.8200   67

   3   rms: 0.1303E-01   max: -.2261E+00   C at   67  2
       a =  1.500      CL =  0.1614
      Cm =  0.0020     CD =  0.00563   =>   CDf =  0.00439    CDp =  0.00124

 Side 1  free  transition at x/c =  0.5285   54
 Side 2  free  transition at x/c =  0.8318   68

   4   rms: 0.6106E-02   max: 0.1259E+00   C at   68  2
       a =  1.500      CL =  0.1609
      Cm =  0.0022     CD =  0.00561   =>   CDf =  0.00429    CDp =  0.00132

 Side 1  free  transition at x/c =  0.5286   54
 Side 2  free  transition at x/c =  0.8283   68

   5   rms: 0.9814E-04   max: -.1564E-02   D at   70  2
       a =  1.500      CL =  0.1609
      Cm =  0.0022     CD =  0.00561   =>   CDf =  0.00431    CDp =  0.00130
      9.000    3.2111   0.005609   0.000000   0.000000   0.000000    0.5286     #

 Point added to stored polar  1
 Point written to save file  CLv_NACA_0012_Re1e6.dat                         
 Dump file unspecified or not available
 Calculating wake trajectory ...
 Calculating source influence matrix ...

 Solving BL system ...

 Side 1  free  transition at x/c =  0.5286   54
 Side 2  free  transition at x/c =  0.8283   68

   1   rms: 0.1221E+00   max: 0.1621E+01   C at   54  1   RLX: 0.529
       a =  2.000      CL =  0.1890
      Cm =  0.0027     CD =  0.00570   =>   CDf =  0.00427    CDp =  0.00142

 Side 1  free  transition at x/c =  0.4969   53
 Side 2  free  transition at x/c =  0.8444   68

   2   rms: 0.5967E-01   max: 0.5168E+00   C at   53  1
       a =  2.000      CL =  0.2144
      Cm =  0.0030     CD =  0.00578   =>   CDf =  0.00438    CDp =  0.00141

 Side 1  free  transition at x/c =  0.4710   51
 Side 2  free  transition at x/c =  0.8623   69

   3   rms: 0.1025E-01   max: -.1458E+00   C at   69  2
       a =  2.000      CL =  0.2141
      Cm =  0.0030     CD =  0.00581   =>   CDf =  0.00442    CDp =  0.00140

 Side 1  free  transition at x/c =  0.4735   52
 Side 2  free  transition at x/c =  0.8673   69

   4   rms: 0.2850E-02   max: -.4794E-01   C at   52  1
       a =  2.000      CL =  0.2142
      Cm =  0.0030     CD =  0.00580   =>   CDf =  0.00438    CDp =  0.00142

 Side 1  free  transition at x/c =  0.4742   52
 Side 2  free  transition at x/c =  0.8676   69

   5   rms: 0.8395E-04   max: 0.1542E-02   C at   52  1
       a =  2.000      CL =  0.2142
      Cm =  0.0030     CD =  0.00580   =>   CDf =  0.00437    CDp =  0.00143
      9.000    3.1957   0.005804   0.000000   0.000000   0.000000    0.4742     #

 Point added to stored polar  1
 Point written to save file  CLv_NACA_0012_Re1e6.dat                         
 Dump file unspecified or not available
 Calculating wake trajectory ...
 Calculating source influence matrix ...

 Solving BL system ...

 Side 1  free  transition at x/c =  0.4741   52
 Side 2  free  transition at x/c =  0.8676   69

   1   rms: 0.1241E+00   max: 0.1598E+01   C at   52  1   RLX: 0.612
       a =  2.500      CL =  0.2465
      Cm =  0.0035     CD =  0.00603   =>   CDf =  0.00437    CDp =  0.00166

 Side 1  free  transition at x/c =  0.4376   49
 Side 2  free  transition at x/c =  0.8863   70

   2   rms: 0.3622E-01   max: -.1058E+00   C at   70  2
       a =  2.500      CL =  0.2683
      Cm =  0.0036     CD =  0.00604   =>   CDf =  0.00443    CDp =  0.00160

 Side 1  free  transition at x/c =  0.4163   49
 Side 2  free  transition at x/c =  0.9027   70

   3   rms: 0.9925E-02   max: -.1408E+00   C at   70  2
       a =  2.500      CL =  0.2672
      Cm =  0.0039     CD =  0.00606   =>   CDf =  0.00449    CDp =  0.00156

 Side 1  free  transition at x/c =  0.4197   49
 Side 2  free  transition at x/c =  0.9010   70

   4   rms: 0.3683E-03   max: -.3571E-02   D at    4  1
       a =  2.500      CL =  0.2672
      Cm =  0.0039     CD =  0.00606   =>   CDf =  0.00446    CDp =  0.00160

 Side 1  free  transition at x/c =  0.4197   49
 Side 2  free  transition at x/c =  0.9011   70

   5   rms: 0.6428E-06   max: -.6659E-05   D at   72  2
       a =  2.500      CL =  0.2672
      Cm =  0.0039     CD =  0.00606   =>   CDf =  0.00446    CDp =  0.00160
      9.000    3.1807   0.006061   0.000000   0.000000   0.000000    0.4197     #

 Point added to stored polar  1
 Point written to save file  CLv_NACA_0012_Re1e6.dat                         
 Dump file unspecified or not available
 Calculating wake trajectory ...
 Calculating source influence matrix ...

 Solving BL system ...

 Side 1  free  transition at x/c =  0.4197   49
 Side 2  free  transition at x/c =  0.9011   70

   1   rms: 0.1078E+00   max: 0.1522E+01   C at   49  1   RLX: 0.985
       a =  3.000      CL =  0.3204
      Cm =  0.0046     CD =  0.00628   =>   CDf =  0.00446    CDp =  0.00182

 Side 1  free  transition at x/c =  0.3570   45
 Side 2  free  transition at x/c =  0.9260   72

   2   rms: 0.1553E-01   max: -.2394E+00   C at   45  1
       a =  3.000      CL =  0.3197
      Cm =  0.0049     CD =  0.00642   =>   CDf =  0.00466    CDp =  0.00177

 Side 1  free  transition at x/c =  0.3663   46
 Side 2  free  transition at x/c =  0.9283   72

   3   rms: 0.3704E-02   max: 0.7734E-01   C at   46  1
       a =  3.000      CL =  0.3200
      Cm =  0.0048     CD =  0.00639   =>   CDf =  0.00458    CDp =  0.00180

 Side 1  free  transition at x/c =  0.3641   46
 Side 2  free  transition at x/c =  0.9285   72

   4   rms: 0.1023E-03   max: -.2070E-02   C at   46  1
       a =  3.000      CL =  0.3199
      Cm =  0.0049     CD =  0.00639   =>   CDf =  0.00459    CDp =  0.00180

 Side 1  free  transition at x/c =  0.3642   46
 Side 2  free  transition at x/c =  0.9285   72

   5   rms: 0.4104E-06   max: -.2213E-05   D at   72  2
       a =  3.000      CL =  0.3199
      Cm =  0.0049     CD =  0.00639   =>   CDf =  0.00459    CDp =  0.00180
      9.000    3.1672   0.006390   0.000000   0.000000   0.000000    0.3642     #

 Point added to stored polar  1
 Point written to save file  CLv_NACA_0012_Re1e6.dat                         
 Dump file unspecified or not available
 Calculating wake trajectory ...
 Calculating source influence matrix ...

 Solving BL system ...

 Side 1  free  transition at x/c =  0.3642   46
 Side 2  free  transition at x/c =  0.9285   72

   1   rms: 0.1236E+00   max: 0.1869E+01   C at   46  1   RLX: 0.743
       a =  3.500      CL =  0.3588
      Cm =  0.0056     CD =  0.00667   =>   CDf =  0.00456    CDp =  0.00211

 Side 1  free  transition at x/c =  0.3192   44
 Side 2  free  transition at x/c =  0.9427   72

   2   rms: 0.2743E-01   max: -.1434E+00   D at   44  1
       a =  3.500      CL =  0.3728
      Cm =  0.0058     CD =  0.00677   =>   CDf =  0.00474    CDp =  0.00203

 Side 1  free  transition at x/c =  0.3074   43
 Side 2  free  transition at x/c =  0.9497   72

   3   rms: 0.6240E-02   max: -.8131E-01   C at   43  1
       a =  3.500      CL =  0.3721
      Cm =  0.0059     CD =  0.00681   =>   CDf =  0.00478    CDp =  0.00202

 Side 1  free  transition at x/c =  0.3082   43
 Side 2  free  transition at x/c =  0.9519   72

   4   rms: 0.3276E-02   max: -.7595E-01   C at   43  1
       a =  3.500      CL =  0.3723
      Cm =  0.0058     CD =  0.00681   =>   CDf =  0.00478    CDp =  0.00203

 Side 1  free  transition at x/c =  0.3082   43
 Side 2  free  transition at x/c =  0.9517   72

   5   rms: 0.3387E-02   max: -.7882E-01   C at   43  1
       a =  3.500      CL =  0.3723
      Cm =  0.0058     CD =  0.00681   =>   CDf =  0.00478    CDp =  0.00203

 Side 1  free  transition at x/c =  0.3082   43
 Side 2  free  transition at x/c =  0.9517   72

   6   rms: 0.3380E-02   max: -.7865E-01   C at   43  1
       a =  3.500      CL =  0.3723
      Cm =  0.0058     CD =  0.00681   =>   CDf =  0.00478    CDp =  0.00203

 Side 1  free  transition at x/c =  0.3082   43
 Side 2  free  transition at x/c =  0.9517   72

   7   rms: 0.3380E-02   max: -.7866E-01   C at   43  1
       a =  3.500      CL =  0.3723
      Cm =  0.0058     CD =  0.00681   =>   CDf =  0.00478    CDp =  0.00203

 Side 1  free  transition at x/c =  0.3082   43
 Side 2  free  transition at x/c =  0.9517   72

   8   rms: 0.3380E-02   max: -.7866E-01   C at   43  1
       a =  3.500      CL =  0.3723
      Cm =  0.0058     CD =  0.00681   =>   CDf =  0.00478    CDp =  0.00203

 Side 1  free  transition at x/c =  0.3082   43
 Side 2  free  transition at x/c =  0.9517   72

   9   rms: 0.3380E-02   max: -.7866E-01   C at   43  1
       a =  3.500      CL =  0.3723
      Cm =  0.0058     CD =  0.00681   =>   CDf =  0.00478    CDp =  0.00203

 Side 1  free  transition at x/c =  0.3082   43
 Side 2  free  transition at x/c =  0.9517   72

  10   rms: 0.3380E-02   max: -.7866E-01   C at   43  1
       a =  3.500      CL =  0.3723
      Cm =  0.0058     CD =  0.00681   =>   CDf =  0.00478    CDp =  0.00203

 Side 1  free  transition at x/c =  0.3082   43
 Side 2  free  transition at x/c =  0.9517   72

  11   rms: 0.3380E-02   max: -.7866E-01   C at   43  1
       a =  3.500      CL =  0.3723
      Cm =  0.0058     CD =  0.00681   =>   CDf =  0.00478    CDp =  0.00203

 Side 1  free  transition at x/c =  0.3082   43
 Side 2  free  transition at x/c =  0.9517   72

  12   rms: 0.3380E-02   max: -.7866E-01   C at   43  1
       a =  3.500      CL =  0.3723
      Cm =  0.0058     CD =  0.00681   =>   CDf =  0.00478    CDp =  0.00203

 Side 1  free  transition at x/c =  0.3082   43
 Side 2  free  transition at x/c =  0.9517   72

  13   rms: 0.3380E-02   max: -.7866E-01   C at   43  1
       a =  3.500      CL =  0.3723
      Cm =  0.0058     CD =  0.00681   =>   CDf =  0.00478    CDp =  0.00203

 Side 1  free  transition at x/c =  0.3082   43
 Side 2  free  transition at x/c =  0.9517   72

  14   rms: 0.3380E-02   max: -.7866E-01   C at   43  1
       a =  3.500      CL =  0.3723
      Cm =  0.0058     CD =  0.00681   =>   CDf =  0.00478    CDp =  0.00203

 Side 1  free  transition at x/c =  0.3082   43
 Side 2  free  transition at x/c =  0.9517   72

  15   rms: 0.3380E-02   max: -.7866E-01   C at   43  1
       a =  3.500      CL =  0.3723
      Cm =  0.0058     CD =  0.00681   =>   CDf =  0.00478    CDp =  0.00203

 Side 1  free  transition at x/c =  0.3082   43
 Side 2  free  transition at x/c =  0.9517   72

  16   rms: 0.3380E-02   max: -.7866E-01   C at   43  1
       a =  3.500      CL =  0.3723
      Cm =  0.0058     CD =  0.00681   =>   CDf =  0.00478    CDp =  0.00203

 Side 1  free  transition at x/c =  0.3082   43
 Side 2  free  transition at x/c =  0.9517   72

  17   rms: 0.3380E-02   max: -.7866E-01   C at   43  1
       a =  3.500      CL =  0.3723
      Cm =  0.0058     CD =  0.00681   =>   CDf =  0.00478    CDp =  0.00203

 Side 1  free  transition at x/c =  0.3082   43
 Side 2  free  transition at x/c =  0.9517   72

  18   rms: 0.3380E-02   max: -.7866E-01   C at   43  1
       a =  3.500      CL =  0.3723
      Cm =  0.0058     CD =  0.00681   =>   CDf =  0.00478    CDp =  0.00203

 Side 1  free  transition at x/c =  0.3082   43
 Side 2  free  transition at x/c =  0.9517   72

  19   rms: 0.3380E-02   max: -.7866E-01   C at   43  1
       a =  3.500      CL =  0.3723
      Cm =  0.0058     CD =  0.00681   =>   CDf =  0.00478    CDp =  0.00203

 Side 1  free  transition at x/c =  0.3082   43
 Side 2  free  transition at x/c =  0.9517   72

  20   rms: 0.3380E-02   max: -.7866E-01   C at   43  1
       a =  3.500      CL =  0.3723
      Cm =  0.0058     CD =  0.00681   =>   CDf =  0.00478    CDp =  0.00203

 Side 1  free  transition at x/c =  0.3082   43
 Side 2  free  transition at x/c =  0.9517   72

  21   rms: 0.3380E-02   max: -.7866E-01   C at   43  1
       a =  3.500      CL =  0.3723
      Cm =  0.0058     CD =  0.00681   =>   CDf =  0.00478    CDp =  0.00203

 Side 1  free  transition at x/c =  0.3082   43
 Side 2  free  transition at x/c =  0.9517   72

  22   rms: 0.3380E-02   max: -.7866E-01   C at   43  1
       a =  3.500      CL =  0.3723
      Cm =  0.0058     CD =  0.00681   =>   CDf =  0.00478    CDp =  0.00203

 Side 1  free  transition at x/c =  0.3082   43
 Side 2  free  transition at x/c =  0.9517   72

  23   rms: 0.3380E-02   max: -.7866E-01   C at   43  1
       a =  3.500      CL =  0.3723
      Cm =  0.0058     CD =  0.00681   =>   CDf =  0.00478    CDp =  0.00203

 Side 1  free  transition at x/c =  0.3082   43
 Side 2  free  transition at x/c =  0.9517   72

  24   rms: 0.3380E-02   max: -.7866E-01   C at   43  1
       a =  3.500      CL =  0.3723
      Cm =  0.0058     CD =  0.00681   =>   CDf =  0.00478    CDp =  0.00203

 Side 1  free  transition at x/c =  0.3082   43
 Side 2  free  transition at x/c =  0.9517   72

  25   rms: 0.3380E-02   max: -.7866E-01   C at   43  1
       a =  3.500      CL =  0.3723
      Cm =  0.0058     CD =  0.00681   =>   CDf =  0.00478    CDp =  0.00203
 VISCAL:  Convergence failed
      9.000    3.1552   0.006809   0.000000   0.000000   0.000000    0.3082     #
 Calculating wake trajectory ...
 Calculating source influence matrix ...

 Solving BL system ...

 Side 1  free  transition at x/c =  0.3082   43
 Side 2  free  transition at x/c =  0.9517   72

   1   rms: 0.8959E-01   max: 0.8453E+00   C at   43  1
       a =  4.000      CL =  0.4232
      Cm =  0.0072     CD =  0.00704   =>   CDf =  0.00475    CDp =  0.00229

 MRCHDU: Convergence failed at  73  side 2    Res =  0.6150E+01
 MRCHDU: Convergence failed at  74  side 2    Res =  0.2969E+01
 MRCHDU: Convergence failed at  75  side 2    Res =  0.1998E+01
 Side 1  free  transition at x/c =  0.2494   41
 Side 2  free  transition at x/c =  0.9762   73

   2   rms: 0.4895E-01   max: 0.4939E+00   T at   75  2
       a =  4.000      CL =  0.4311
      Cm =  0.0053     CD =  0.00719   =>   CDf =  0.00498    CDp =  0.00220

 Side 1  free  transition at x/c =  0.2527   41
 Side 2  free  transition at x/c =  0.9633   72

   3   rms: 0.1579E-01   max: -.2438E+00   D at   73  2
       a =  4.000      CL =  0.4251
      Cm =  0.0066     CD =  0.00727   =>   CDf =  0.00497    CDp =  0.00230

 Side 1  free  transition at x/c =  0.2547   41
 Side 2  free  transition at x/c =  0.9716   73

   4   rms: 0.1070E-01   max: 0.1406E+00   C at   73  2
       a =  4.000      CL =  0.4271
      Cm =  0.0062     CD =  0.00727   =>   CDf =  0.00496    CDp =  0.00231

 Side 1  free  transition at x/c =  0.2539   41
 Side 2  free  transition at x/c =  0.9688   73

   5   rms: 0.1194E-02   max: -.1521E-01   D at   75  2
       a =  4.000      CL =  0.4278
      Cm =  0.0060     CD =  0.00728   =>   CDf =  0.00496    CDp =  0.00231

 Side 1  free  transition at x/c =  0.2536   41
 Side 2  free  transition at x/c =  0.9685   73

   6   rms: 0.1659E-04   max: -.2359E-03   D at   73  2
       a =  4.000      CL =  0.4278
      Cm =  0.0060     CD =  0.00728   =>   CDf =  0.00497    CDp =  0.00231
      9.000    3.1656   0.007278   0.000000   0.000000   0.000000    0.2536     #

 Point added to stored polar  1
 Point written to save file  CLv_NACA_0012_Re1e6.dat                         
 Dump file unspecified or not available
 Calculating wake trajectory ...
 Calculating source influence matrix ...

 Solving BL system ...

 Side 1  free  transition at x/c =  0.2536   41
 Side 2  free  transition at x/c =  0.9685   73

   1   rms: 0.1360E+00   max: 0.2176E+01   C at   41  1   RLX: 0.689
       a =  4.500      CL =  0.4721
      Cm =  0.0048     CD =  0.00764   =>   CDf =  0.00496    CDp =  0.00268

 Side 1  free  transition at x/c =  0.2108   38
 Side 2  free  transition at x/c =  0.9742   73

   2   rms: 0.2884E-01   max: -.1666E+00   D at   38  1
       a =  4.500      CL =  0.4898
      Cm =  0.0047     CD =  0.00781   =>   CDf =  0.00516    CDp =  0.00265

 Side 1  free  transition at x/c =  0.1966   37
 Side 2  free  transition at x/c =  0.9789   73

   3   rms: 0.6691E-02   max: -.1130E+00   C at   37  1
       a =  4.500      CL =  0.4877
      Cm =  0.0051     CD =  0.00786   =>   CDf =  0.00522    CDp =  0.00264

 Side 1  free  transition at x/c =  0.1978   38
 Side 2  free  transition at x/c =  0.9805   74

   4   rms: 0.3052E-02   max: 0.3898E-01   D at   38  1
       a =  4.500      CL =  0.4877
      Cm =  0.0051     CD =  0.00785   =>   CDf =  0.00521    CDp =  0.00264

 Side 1  free  transition at x/c =  0.1990   38
 Side 2  free  transition at x/c =  0.9804   74

   5   rms: 0.4018E-03   max: -.6489E-02   D at   38  1
       a =  4.500      CL =  0.4877
      Cm =  0.0051     CD =  0.00785   =>   CDf =  0.00520    CDp =  0.00265

 Side 1  free  transition at x/c =  0.1989   38
 Side 2  free  transition at x/c =  0.9804   74

   6   rms: 0.4318E-05   max: -.6441E-04   D at   38  1
       a =  4.500      CL =  0.4877
      Cm =  0.0051     CD =  0.00785   =>   CDf =  0.00520    CDp =  0.00265
      9.000    3.2074   0.007852   0.000000   0.000000   0.000000    0.1989     #

 Point added to stored polar  1
 Point written to save file  CLv_NACA_0012_Re1e6.dat                         
 Dump file unspecified or not available
 Calculating wake trajectory ...
 Calculating source influence matrix ...

 Solving BL system ...

 Side 1  free  transition at x/c =  0.1988   38
 Side 2  free  transition at x/c =  0.9804   74

   1   rms: 0.1414E+00   max: -.1390E+01   D at   38  1   RLX: 0.360
       a =  5.000      CL =  0.5122
      Cm =  0.0040     CD =  0.00814   =>   CDf =  0.00517    CDp =  0.00297

 Side 1  free  transition at x/c =  0.1788   37
 Side 2  free  transition at x/c =  0.9823   73

   2   rms: 0.7927E-01   max: 0.9173E+00   C at   37  1
       a =  5.000      CL =  0.5581
      Cm =  0.0018     CD =  0.00839   =>   CDf =  0.00529    CDp =  0.00310

 Side 1  free  transition at x/c =  0.1472   35
 Side 2  free  transition at x/c =  0.9851   73

   3   rms: 0.8676E-02   max: -.1343E+00   C at   35  1
       a =  5.000      CL =  0.5580
      Cm =  0.0017     CD =  0.00847   =>   CDf =  0.00544    CDp =  0.00303

 Side 1  free  transition at x/c =  0.1489   35
 Side 2  free  transition at x/c =  0.9849   73

   4   rms: 0.4921E-03   max: 0.9646E-02   C at   35  1
       a =  5.000      CL =  0.5580
      Cm =  0.0017     CD =  0.00847   =>   CDf =  0.00543    CDp =  0.00304

 Side 1  free  transition at x/c =  0.1488   35
 Side 2  free  transition at x/c =  0.9849   73

   5   rms: 0.1350E-05   max: -.1839E-04   D at   36  1
       a =  5.000      CL =  0.5580
      Cm =  0.0017     CD =  0.00847   =>   CDf =  0.00543    CDp =  0.00304
      9.000    3.3239   0.008474   0.000000   0.000000   0.000000    0.1488     #

 Point added to stored polar  1
 Point written to save file  CLv_NACA_0012_Re1e6.dat                         
 Dump file unspecified or not available
 Calculating wake trajectory ...
 Calculating source influence matrix ...

 Solving BL system ...

 Side 1  free  transition at x/c =  0.1488   35
 Side 2  free  transition at x/c =  0.9849   73

   1   rms: 0.1231E+00   max: 0.1759E+01   C at   35  1   RLX: 0.828
       a =  5.500      CL =  0.6167
      Cm = -0.0011     CD =  0.00892   =>   CDf =  0.00539    CDp =  0.00353

 Side 1  free  transition at x/c =  0.1146   34
 Side 2  free  transition at x/c =  0.9882   72

   2   rms: 0.1980E-01   max: -.1854E+00   D at   34  1
       a =  5.500      CL =  0.6258
      Cm = -0.0012     CD =  0.00912   =>   CDf =  0.00561    CDp =  0.00352

 Side 1  free  transition at x/c =  0.1092   33
 Side 2  free  transition at x/c =  0.9902   72

   3   rms: 0.8635E-03   max: -.8635E-02   D at   34  1
       a =  5.500      CL =  0.6255
      Cm = -0.0011     CD =  0.00912   =>   CDf =  0.00564    CDp =  0.00348

 Side 1  free  transition at x/c =  0.1090   33
 Side 2  free  transition at x/c =  0.9904   72

   4   rms: 0.7540E-05   max: -.7996E-04   T at   72  2
       a =  5.500      CL =  0.6255
      Cm = -0.0011     CD =  0.00912   =>   CDf =  0.00564    CDp =  0.00348
      9.000    3.5444   0.009119   0.000000   0.000000   0.000000    0.1090     #

 Point added to stored polar  1
 Point written to save file  CLv_NACA_0012_Re1e6.dat                         
 Dump file unspecified or not available
 Calculating wake trajectory ...
 Calculating source influence matrix ...

 Solving BL system ...

 Side 1  free  transition at x/c =  0.1090   33
 Side 2  free  transition at x/c =  0.9904   72

   1   rms: 0.9709E-01   max: 0.7178E+00   C at   33  1
       a =  6.000      CL =  0.6905
      Cm = -0.0031     CD =  0.00957   =>   CDf =  0.00559    CDp =  0.00398

 Side 1  free  transition at x/c =  0.0832   32
 Side 2  free  transition at x/c =  0.9976   72

   2   rms: 0.1988E-01   max: -.2281E+00   C at   32  1
       a =  6.000      CL =  0.6951
      Cm = -0.0043     CD =  0.00969   =>   CDf =  0.00578    CDp =  0.00390

 Side 1  free  transition at x/c =  0.0817   32
 Side 2  free  transition at x/c =  0.9938   72

   3   rms: 0.1541E-02   max: -.2167E-01   D at   72  2
       a =  6.000      CL =  0.6948
      Cm = -0.0043     CD =  0.00972   =>   CDf =  0.00578    CDp =  0.00395

 Side 1  free  transition at x/c =  0.0814   32
 Side 2  free  transition at x/c =  0.9940   72

   4   rms: 0.1122E-04   max: -.1675E-03   C at   32  1
       a =  6.000      CL =  0.6948
      Cm = -0.0043     CD =  0.00972   =>   CDf =  0.00578    CDp =  0.00394
      9.000    3.8785   0.009723   0.000000   0.000000   0.000000    0.0814     #

 Point added to stored polar  1
 Point written to save file  CLv_NACA_0012_Re1e6.dat                         
 Dump file unspecified or not available
 Calculating wake trajectory ...
 Calculating source influence matrix ...

 Solving BL system ...

 Side 1  free  transition at x/c =  0.0814   32
 Side 2  free  transition at x/c =  0.9940   72

   1   rms: 0.1044E+00   max: 0.8034E+00   C at   32  1   RLX: 0.837
       a =  6.500      CL =  0.7537
      Cm = -0.0071     CD =  0.01019   =>   CDf =  0.00578    CDp =  0.00441

 Side 1  free  transition at x/c =  0.0656   31
 Side 2  free  transition at x/c =  0.9966   72

   2   rms: 0.1956E-01   max: -.1628E+00   D at   32  1
       a =  6.500      CL =  0.7636
      Cm = -0.0074     CD =  0.01039   =>   CDf =  0.00588    CDp =  0.00450

 Side 1  free  transition at x/c =  0.0622   30
 Side 2  free  transition at x/c =  0.9976   72

   3   rms: 0.3680E-02   max: -.6416E-01   C at   30  1
       a =  6.500      CL =  0.7638
      Cm = -0.0074     CD =  0.01035   =>   CDf =  0.00589    CDp =  0.00446

 Side 1  free  transition at x/c =  0.0621   30
 Side 2  free  transition at x/c =  0.9976   72

   4   rms: 0.1063E-03   max: 0.2041E-02   C at   30  1
       a =  6.500      CL =  0.7638
      Cm = -0.0074     CD =  0.01036   =>   CDf =  0.00590    CDp =  0.00446

 Side 1  free  transition at x/c =  0.0621   30
 Side 2  free  transition at x/c =  0.9976   72

   5   rms: 0.5309E-06   max: 0.2370E-05   D at   72  2
       a =  6.500      CL =  0.7638
      Cm = -0.0074     CD =  0.01036   =>   CDf =  0.00590    CDp =  0.00446
      9.000    4.3288   0.010357   0.000852   0.000997   0.000144    0.0621     #

 Point added to stored polar  1
 Point written to save file  CLv_NACA_0012_Re1e6.dat                         
 Dump file unspecified or not available
 Calculating wake trajectory ...
 Calculating source influence matrix ...

 Solving BL system ...

 Side 1  free  transition at x/c =  0.0621   30
 Side 2  free  transition at x/c =  0.9976   72

   1   rms: 0.9310E-01   max: -.4054E+00   D at   30  1
       a =  7.000      CL =  0.8332
      Cm = -0.0105     CD =  0.01080   =>   CDf =  0.00580    CDp =  0.00499

 Side 1  free  transition at x/c =  0.0510   30
 Side 2 forced transition at x/c =  1.0000   71

   2   rms: 0.2444E-01   max: -.3324E+00   D at   30  1
       a =  7.000      CL =  0.8270
      Cm = -0.0093     CD =  0.01088   =>   CDf =  0.00592    CDp =  0.00496

 Side 1  free  transition at x/c =  0.0512   30
 Side 2 forced transition at x/c =  1.0000   71

   3   rms: 0.3381E-02   max: 0.5477E-01   C at   30  1
       a =  7.000      CL =  0.8265
      Cm = -0.0092     CD =  0.01094   =>   CDf =  0.00594    CDp =  0.00499

 Side 1  free  transition at x/c =  0.0506   30
 Side 2 forced transition at x/c =  1.0000   71

   4   rms: 0.5748E-04   max: -.9969E-03   D at   30  1
       a =  7.000      CL =  0.8265
      Cm = -0.0092     CD =  0.01094   =>   CDf =  0.00595    CDp =  0.00499
      9.000    4.7507   0.010937   0.000818   0.001037   0.000219    0.0506     #

 Point added to stored polar  1
 Point written to save file  CLv_NACA_0012_Re1e6.dat                         
 Dump file unspecified or not available
 Calculating wake trajectory ...
 Calculating source influence matrix ...

 Solving BL system ...

 Side 1  free  transition at x/c =  0.0506   30
 Side 2 forced transition at x/c =  1.0000   71

   1   rms: 0.8334E-01   max: -.4941E+00   D at   30  1
       a =  7.500      CL =  0.8686
      Cm = -0.0067     CD =  0.01147   =>   CDf =  0.00583    CDp =  0.00565

 Side 1  free  transition at x/c =  0.0442   30
 Side 2 forced transition at x/c =  1.0000   70

   2   rms: 0.2101E-01   max: -.2427E+00   D at   30  1
       a =  7.500      CL =  0.8689
      Cm = -0.0067     CD =  0.01143   =>   CDf =  0.00594    CDp =  0.00549

 Side 1  free  transition at x/c =  0.0438   30
 Side 2 forced transition at x/c =  1.0000   70

   3   rms: 0.2187E-02   max: 0.2868E-01   C at   30  1
       a =  7.500      CL =  0.8684
      Cm = -0.0066     CD =  0.01149   =>   CDf =  0.00596    CDp =  0.00552

 Side 1  free  transition at x/c =  0.0436   30
 Side 2 forced transition at x/c =  1.0000   70

   4   rms: 0.2735E-04   max: -.4494E-03   D at   30  1
       a =  7.500      CL =  0.8684
      Cm = -0.0066     CD =  0.01149   =>   CDf =  0.00596    CDp =  0.00552
      9.000    5.2164   0.011485   0.000806   0.001086   0.000280    0.0436     #

 Point added to stored polar  1
 Point written to save file  CLv_NACA_0012_Re1e6.dat                         
 Dump file unspecified or not available
 Calculating wake trajectory ...
 Calculating source influence matrix ...

 Solving BL system ...

 Side 1  free  transition at x/c =  0.0436   30
 Side 2 forced transition at x/c =  1.0000   70

   1   rms: 0.7962E-01   max: -.3660E+00   D at   30  1
       a =  8.000      CL =  0.9104
      Cm = -0.0040     CD =  0.01204   =>   CDf =  0.00596    CDp =  0.00607

 Side 1  free  transition at x/c =  0.0385   29
 Side 2 forced transition at x/c =  1.0000   70

   2   rms: 0.1661E-01   max: -.1691E+00   D at   29  1
       a =  8.000      CL =  0.9102
      Cm = -0.0040     CD =  0.01207   =>   CDf =  0.00596    CDp =  0.00611

 Side 1  free  transition at x/c =  0.0382   29
 Side 2 forced transition at x/c =  1.0000   70

   3   rms: 0.1111E-02   max: 0.1245E-01   D at   29  1
       a =  8.000      CL =  0.9099
      Cm = -0.0040     CD =  0.01210   =>   CDf =  0.00597    CDp =  0.00613

 Side 1  free  transition at x/c =  0.0381   29
 Side 2 forced transition at x/c =  1.0000   70

   4   rms: 0.7805E-05   max: -.7112E-04   D at   30  1
       a =  8.000      CL =  0.9099
      Cm = -0.0040     CD =  0.01210   =>   CDf =  0.00597    CDp =  0.00613
      9.000    5.6906   0.012103   0.000805   0.001150   0.000345    0.0381     #

 Point added to stored polar  1
 Point written to save file  CLv_NACA_0012_Re1e6.dat                         
 Dump file unspecified or not available
 Calculating wake trajectory ...
 Calculating source influence matrix ...

 Solving BL system ...

 Side 1  free  transition at x/c =  0.0381   29
 Side 2 forced transition at x/c =  1.0000   70

   1   rms: 0.7687E-01   max: 0.3124E+00   T at   29  1
       a =  8.500      CL =  0.9530
      Cm = -0.0015     CD =  0.01259   =>   CDf =  0.00581    CDp =  0.00678

 Side 1  free  transition at x/c =  0.0339   30
 Side 2 forced transition at x/c =  1.0000   69

   2   rms: 0.5701E-02   max: -.4129E-01   D at    3  1
       a =  8.500      CL =  0.9508
      Cm = -0.0012     CD =  0.01285   =>   CDf =  0.00598    CDp =  0.00687

 Side 1  free  transition at x/c =  0.0334   29
 Side 2 forced transition at x/c =  1.0000   69

   3   rms: 0.1855E-02   max: -.2097E-01   D at   29  1
       a =  8.500      CL =  0.9511
      Cm = -0.0013     CD =  0.01283   =>   CDf =  0.00598    CDp =  0.00685

 Side 1  free  transition at x/c =  0.0334   29
 Side 2 forced transition at x/c =  1.0000   69

   4   rms: 0.1486E-04   max: -.1490E-03   C at   69  2
       a =  8.500      CL =  0.9511
      Cm = -0.0013     CD =  0.01283   =>   CDf =  0.00598    CDp =  0.00685
      9.000    6.0688   0.012830   0.000813   0.001230   0.000417    0.0334     #

 Point added to stored polar  1
 Point written to save file  CLv_NACA_0012_Re1e6.dat                         
 Dump file unspecified or not available
 Calculating wake trajectory ...
 Calculating source influence matrix ...

 Solving BL system ...

 Side 1  free  transition at x/c =  0.0334   29
 Side 2 forced transition at x/c =  1.0000   69

   1   rms: 0.7670E-01   max: -.4740E+00   C at   29  1
       a =  9.000      CL =  0.9956
      Cm =  0.0009     CD =  0.01327   =>   CDf =  0.00598    CDp =  0.00728

 Side 1  free  transition at x/c =  0.0309   29
 Side 2 forced transition at x/c =  1.0000   69

   2   rms: 0.3912E-02   max: -.3920E-01   D at   29  1
       a =  9.000      CL =  0.9948
      Cm =  0.0010     CD =  0.01340   =>   CDf =  0.00594    CDp =  0.00746

 Side 1  free  transition at x/c =  0.0307   29
 Side 2 forced transition at x/c =  1.0000   69

   3   rms: 0.8889E-04   max: 0.8687E-03   D at   66  2
       a =  9.000      CL =  0.9948
      Cm =  0.0010     CD =  0.01340   =>   CDf =  0.00594    CDp =  0.00746
      9.000    6.3899   0.013405   0.000827   0.001272   0.000445    0.0307     #

 Point added to stored polar  1
 Point written to save file  CLv_NACA_0012_Re1e6.dat                         
 Dump file unspecified or not available
 Calculating wake trajectory ...
 Calculating source influence matrix ...

 Solving BL system ...

 Side 1  free  transition at x/c =  0.0307   29
 Side 2 forced transition at x/c =  1.0000   69

   1   rms: 0.7821E-01   max: -.3124E+00   D at   29  1
       a =  9.500      CL =  1.0373
      Cm =  0.0033     CD =  0.01415   =>   CDf =  0.00574    CDp =  0.00841

 Side 1  free  transition at x/c =  0.0281   29
 Side 2 forced transition at x/c =  1.0000   68

   2   rms: 0.1728E-01   max: -.1611E+00   D at   30  1
       a =  9.500      CL =  1.0370
      Cm =  0.0033     CD =  0.01422   =>   CDf =  0.00588    CDp =  0.00833

 Side 1  free  transition at x/c =  0.0278   29
 Side 2 forced transition at x/c =  1.0000   68

   3   rms: 0.8920E-03   max: 0.9115E-02   D at   29  1
       a =  9.500      CL =  1.0364
      Cm =  0.0034     CD =  0.01426   =>   CDf =  0.00591    CDp =  0.00835

 Side 1  free  transition at x/c =  0.0278   29
 Side 2 forced transition at x/c =  1.0000   68

   4   rms: 0.3117E-05   max: 0.2530E-04   C at   68  2
       a =  9.500      CL =  1.0364
      Cm =  0.0034     CD =  0.01426   =>   CDf =  0.00591    CDp =  0.00835
      9.000    6.8244   0.014260   0.000839   0.001381   0.000541    0.0278     #

 Point added to stored polar  1
 Point written to save file  CLv_NACA_0012_Re1e6.dat                         
 Dump file unspecified or not available
 Calculating wake trajectory ...
 Calculating source influence matrix ...

 Solving BL system ...

 Side 1  free  transition at x/c =  0.0278   29
 Side 2 forced transition at x/c =  1.0000   68

   1   rms: 0.7539E-01   max: 0.2988E+00   T at   29  1
       a = 10.000      CL =  1.0813
      Cm =  0.0053     CD =  0.01487   =>   CDf =  0.00591    CDp =  0.00896

 Side 1  free  transition at x/c =  0.0255   29
 Side 2 forced transition at x/c =  1.0000   68

   2   rms: 0.8043E-02   max: -.1044E+00   D at   29  1
       a = 10.000      CL =  1.0810
      Cm =  0.0053     CD =  0.01497   =>   CDf =  0.00585    CDp =  0.00911

 Side 1  free  transition at x/c =  0.0255   29
 Side 2 forced transition at x/c =  1.0000   68

   3   rms: 0.3617E-03   max: 0.3915E-02   D at   29  1
       a = 10.000      CL =  1.0809
      Cm =  0.0053     CD =  0.01498   =>   CDf =  0.00587    CDp =  0.00911

 Side 1  free  transition at x/c =  0.0255   29
 Side 2 forced transition at x/c =  1.0000   68

   4   rms: 0.3246E-05   max: 0.3256E-04   C at   68  2
       a = 10.000      CL =  1.0809
      Cm =  0.0053     CD =  0.01498   =>   CDf =  0.00587    CDp =  0.00911
      9.000    7.0014   0.014977   0.000865   0.001420   0.000555    0.0255     #

 Point added to stored polar  1
 Point written to save file  CLv_NACA_0012_Re1e6.dat                         
 Dump file unspecified or not available
 Calculating wake trajectory ...
 Calculating source influence matrix ...

 Solving BL system ...

 Side 1  free  transition at x/c =  0.0255   29
 Side 2 forced transition at x/c =  1.0000   68

   1   rms: 0.7805E-01   max: -.2750E+00   D at   29  1
       a = 10.500      CL =  1.1240
      Cm =  0.0072     CD =  0.01590   =>   CDf =  0.00563    CDp =  0.01027

 Side 1  free  transition at x/c =  0.0238   29
 Side 2 forced transition at x/c =  1.0000   67

   2   rms: 0.1691E-01   max: -.1515E+00   D at   30  1
       a = 10.500      CL =  1.1232
      Cm =  0.0073     CD =  0.01601   =>   CDf =  0.00578    CDp =  0.01023

 Side 1  free  transition at x/c =  0.0236   29
 Side 2 forced transition at x/c =  1.0000   67

   3   rms: 0.8807E-03   max: 0.7124E-02   D at   29  1
       a = 10.500      CL =  1.1226
      Cm =  0.0074     CD =  0.01606   =>   CDf =  0.00580    CDp =  0.01026

 Side 1  free  transition at x/c =  0.0235   29
 Side 2 forced transition at x/c =  1.0000   67

   4   rms: 0.1825E-05   max: 0.9636E-05   T at   29  1
       a = 10.500      CL =  1.1226
      Cm =  0.0074     CD =  0.01606   =>   CDf =  0.00580    CDp =  0.01026
      9.000    7.4264   0.016063   0.000881   0.001566   0.000685    0.0235     #

 Point added to stored polar  1
 Point written to save file  CLv_NACA_0012_Re1e6.dat                         
 Dump file unspecified or not available
 Calculating wake trajectory ...
 Calculating source influence matrix ...

 Solving BL system ...

 Side 1  free  transition at x/c =  0.0235   29
 Side 2 forced transition at x/c =  1.0000   67

   1   rms: 0.7433E-01   max: 0.2609E+00   T at   29  1
       a = 11.000      CL =  1.1676
      Cm =  0.0090     CD =  0.01685   =>   CDf =  0.00581    CDp =  0.01104

 Side 1  free  transition at x/c =  0.0221   29
 Side 2 forced transition at x/c =  1.0000   67

   2   rms: 0.4018E-02   max: -.4343E-01   D at   29  1
       a = 11.000      CL =  1.1667
      Cm =  0.0091     CD =  0.01693   =>   CDf =  0.00572    CDp =  0.01121

 Side 1  free  transition at x/c =  0.0220   29
 Side 2 forced transition at x/c =  1.0000   67

   3   rms: 0.5360E-04   max: -.6542E-03   C at   67  2
       a = 11.000      CL =  1.1666
      Cm =  0.0091     CD =  0.01693   =>   CDf =  0.00573    CDp =  0.01120
      9.000    7.7925   0.016930   0.000909   0.001613   0.000703    0.0220     #

 Point added to stored polar  1
 Point written to save file  CLv_NACA_0012_Re1e6.dat                         
 Dump file unspecified or not available
 Calculating wake trajectory ...
 Calculating source influence matrix ...

 Solving BL system ...

 Side 1  free  transition at x/c =  0.0220   29
 Side 2 forced transition at x/c =  1.0000   67

   1   rms: 0.7466E-01   max: 0.2509E+00   T at   29  1
       a = 11.500      CL =  1.2098
      Cm =  0.0108     CD =  0.01790   =>   CDf =  0.00546    CDp =  0.01244

 Side 1  free  transition at x/c =  0.0205   30
 Side 2 forced transition at x/c =  1.0000   66

   2   rms: 0.5389E-02   max: -.5572E-01   D at    3  1
       a = 11.500      CL =  1.2062
      Cm =  0.0112     CD =  0.01817   =>   CDf =  0.00567    CDp =  0.01250

 Side 1  free  transition at x/c =  0.0205   30
 Side 2 forced transition at x/c =  1.0000   66

   3   rms: 0.2854E-03   max: -.2519E-02   D at    4  1
       a = 11.500      CL =  1.2062
      Cm =  0.0112     CD =  0.01817   =>   CDf =  0.00567    CDp =  0.01250

 Side 1  free  transition at x/c =  0.0205   30
 Side 2 forced transition at x/c =  1.0000   66

   4   rms: 0.5367E-06   max: 0.3629E-05   C at   66  2
       a = 11.500      CL =  1.2062
      Cm =  0.0112     CD =  0.01817   =>   CDf =  0.00567    CDp =  0.01250
      9.000    7.9949   0.018170   0.000935   0.001743   0.000808    0.0205     #

 Point added to stored polar  1
 Point written to save file  CLv_NACA_0012_Re1e6.dat                         
 Dump file unspecified or not available
 Calculating wake trajectory ...
 Calculating source influence matrix ...

 Solving BL system ...

 Side 1  free  transition at x/c =  0.0205   30
 Side 2 forced transition at x/c =  1.0000   66

   1   rms: 0.8936E-01   max: -.2657E+00   C at   66  2
       a = 12.000      CL =  1.2353
      Cm =  0.0146     CD =  0.02035   =>   CDf =  0.00567    CDp =  0.01467

 Side 1  free  transition at x/c =  0.0191   29
 Side 2 forced transition at x/c =  1.0000   66

   2   rms: 0.4873E-01   max: -.3821E+00   D at   29  1
       a = 12.000      CL =  1.2447
      Cm =  0.0135     CD =  0.01932   =>   CDf =  0.00544    CDp =  0.01388

 Side 1  free  transition at x/c =  0.0194   29
 Side 2 forced transition at x/c =  1.0000   66

   3   rms: 0.4078E-02   max: 0.3776E-01   D at   29  1
       a = 12.000      CL =  1.2455
      Cm =  0.0133     CD =  0.01935   =>   CDf =  0.00556    CDp =  0.01379

 Side 1  free  transition at x/c =  0.0194   29
 Side 2 forced transition at x/c =  1.0000   66

   4   rms: 0.1921E-04   max: 0.1025E-03   D at   96  1
       a = 12.000      CL =  1.2455
      Cm =  0.0133     CD =  0.01935   =>   CDf =  0.00555    CDp =  0.01380
      9.000    8.1860   0.019348   0.000960   0.001843   0.000883    0.0194     #

 Point added to stored polar  1
 Point written to save file  CLv_NACA_0012_Re1e6.dat                         
 Dump file unspecified or not available
 Calculating wake trajectory ...
 Calculating source influence matrix ...

 Solving BL system ...

 Side 1  free  transition at x/c =  0.0194   29
 Side 2 forced transition at x/c =  1.0000   66

   1   rms: 0.7150E-01   max: 0.2148E+00   T at   29  1
       a = 12.500      CL =  1.2855
      Cm =  0.0153     CD =  0.02046   =>   CDf =  0.00525    CDp =  0.01521

 Side 1  free  transition at x/c =  0.0183   30
 Side 2 forced transition at x/c =  1.0000   65

   2   rms: 0.4536E-02   max: -.4577E-01   D at    3  1
       a = 12.500      CL =  1.2836
      Cm =  0.0155     CD =  0.02052   =>   CDf =  0.00544    CDp =  0.01508

 Side 1  free  transition at x/c =  0.0183   30
 Side 2 forced transition at x/c =  1.0000   65

   3   rms: 0.2932E-03   max: -.3055E-02   D at    4  1
       a = 12.500      CL =  1.2836
      Cm =  0.0155     CD =  0.02052   =>   CDf =  0.00545    CDp =  0.01508

 Side 1  free  transition at x/c =  0.0183   30
 Side 2 forced transition at x/c =  1.0000   65

   4   rms: 0.1960E-06   max: -.2362E-05   D at    6  1
       a = 12.500      CL =  1.2836
      Cm =  0.0155     CD =  0.02052   =>   CDf =  0.00545    CDp =  0.01508
      9.000    8.4770   0.020525   0.000991   0.001887   0.000896    0.0183     #

 Point added to stored polar  1
 Point written to save file  CLv_NACA_0012_Re1e6.dat                         
 Dump file unspecified or not available
 Calculating wake trajectory ...
 Calculating source influence matrix ...

 Solving BL system ...

 Side 1  free  transition at x/c =  0.0183   30
 Side 2 forced transition at x/c =  1.0000   65

   1   rms: 0.7076E-01   max: 0.2014E+00   T at   30  1
       a = 13.000      CL =  1.3199
      Cm =  0.0178     CD =  0.02182   =>   CDf =  0.00545    CDp =  0.01637

 Side 1  free  transition at x/c =  0.0174   30
 Side 2 forced transition at x/c =  1.0000   65

   2   rms: 0.5567E-02   max: -.3402E-01   D at   30  1
       a = 13.000      CL =  1.3161
      Cm =  0.0182     CD =  0.02196   =>   CDf =  0.00535    CDp =  0.01661

 Side 1  free  transition at x/c =  0.0174   30
 Side 2 forced transition at x/c =  1.0000   65

   3   rms: 0.1871E-03   max: 0.1679E-02   D at   67  2
       a = 13.000      CL =  1.3159
      Cm =  0.0183     CD =  0.02196   =>   CDf =  0.00536    CDp =  0.01660

 Side 1  free  transition at x/c =  0.0174   30
 Side 2 forced transition at x/c =  1.0000   65

   4   rms: 0.1491E-05   max: 0.1263E-04   D at   67  2
       a = 13.000      CL =  1.3159
      Cm =  0.0183     CD =  0.02196   =>   CDf =  0.00536    CDp =  0.01660
      9.000    8.5891   0.021963   0.001024   0.001968   0.000945    0.0174     #

 Point added to stored polar  1
 Point written to save file  CLv_NACA_0012_Re1e6.dat                         
 Dump file unspecified or not available
 Calculating wake trajectory ...
 Calculating source influence matrix ...

 Solving BL system ...

 Side 1  free  transition at x/c =  0.0174   30
 Side 2 forced transition at x/c =  1.0000   65

   1   rms: 0.7144E-01   max: -.2382E+00   C at   65  2
       a = 13.500      CL =  1.3393
      Cm =  0.0222     CD =  0.02384   =>   CDf =  0.00503    CDp =  0.01881

 Side 1  free  transition at x/c =  0.0167   30
 Side 2 forced transition at x/c =  1.0000   64

   2   rms: 0.1735E-01   max: -.1075E+00   C at   64  2
       a = 13.500      CL =  1.3272
      Cm =  0.0237     CD =  0.02422   =>   CDf =  0.00519    CDp =  0.01903

 Side 1  free  transition at x/c =  0.0166   30
 Side 2 forced transition at x/c =  1.0000   64

   3   rms: 0.1324E-02   max: 0.1324E-01   C at   64  2
       a = 13.500      CL =  1.3278
      Cm =  0.0235     CD =  0.02425   =>   CDf =  0.00521    CDp =  0.01905

 Side 1  free  transition at x/c =  0.0166   30
 Side 2 forced transition at x/c =  1.0000   64

   4   rms: 0.1590E-04   max: 0.1258E-03   D at   95  1
       a = 13.500      CL =  1.3278
      Cm =  0.0235     CD =  0.02425   =>   CDf =  0.00521    CDp =  0.01905
      9.000    8.6834   0.024254   0.001035   0.002185   0.001150    0.0166     #

 Point added to stored polar  1
 Point written to save file  CLv_NACA_0012_Re1e6.dat                         
 Dump file unspecified or not available
 Calculating wake trajectory ...
 Calculating source influence matrix ...

 Solving BL system ...

 Side 1  free  transition at x/c =  0.0166   30
 Side 2 forced transition at x/c =  1.0000   64

   1   rms: 0.6597E-01   max: -.2194E+00   C at   64  2
       a = 14.000      CL =  1.3543
      Cm =  0.0266     CD =  0.02588   =>   CDf =  0.00521    CDp =  0.02067

 Side 1  free  transition at x/c =  0.0162   30
 Side 2 forced transition at x/c =  1.0000   64

   2   rms: 0.5932E-02   max: 0.4921E-01   D at   93  1
       a = 14.000      CL =  1.3507
      Cm =  0.0267     CD =  0.02609   =>   CDf =  0.00505    CDp =  0.02104

 Side 1  free  transition at x/c =  0.0162   30
 Side 2 forced transition at x/c =  1.0000   64

   3   rms: 0.3529E-03   max: 0.5934E-02   D at   92  1
       a = 14.000      CL =  1.3506
      Cm =  0.0267     CD =  0.02608   =>   CDf =  0.00504    CDp =  0.02104

 Side 1  free  transition at x/c =  0.0162   30
 Side 2 forced transition at x/c =  1.0000   64

   4   rms: 0.6734E-05   max: 0.6601E-04   D at   70  2
       a = 14.000      CL =  1.3506
      Cm =  0.0267     CD =  0.02608   =>   CDf =  0.00504    CDp =  0.02104
      9.000    9.0254   0.026081   0.022969   0.002245  -0.020724    0.0162     #

 Point added to stored polar  1
 Point written to save file  CLv_NACA_0012_Re1e6.dat                         
 Dump file unspecified or not available
 Calculating wake trajectory ...
 Calculating source influence matrix ...

 Solving BL system ...

 Side 1  free  transition at x/c =  0.0162   30
 Side 2 forced transition at x/c =  1.0000   64

   1   rms: 0.6728E-01   max: -.1978E+00   C at   64  2
       a = 14.500      CL =  1.3712
      Cm =  0.0295     CD =  0.02835   =>   CDf =  0.00504    CDp =  0.02330

 Side 1  free  transition at x/c =  0.0156   30
 Side 2 forced transition at x/c =  1.0000   64

   2   rms: 0.6773E-02   max: 0.6359E-01   D at   91  1
       a = 14.500      CL =  1.3676
      Cm =  0.0293     CD =  0.02856   =>   CDf =  0.00488    CDp =  0.02368

 Side 1  free  transition at x/c =  0.0156   30
 Side 2 forced transition at x/c =  1.0000   64

   3   rms: 0.3959E-03   max: 0.8476E-02   D at   89  1
       a = 14.500      CL =  1.3676
      Cm =  0.0293     CD =  0.02854   =>   CDf =  0.00487    CDp =  0.02367

 Side 1  free  transition at x/c =  0.0156   30
 Side 2 forced transition at x/c =  1.0000   64

   4   rms: 0.7755E-05   max: 0.5250E-04   D at   88  1
       a = 14.500      CL =  1.3676
      Cm =  0.0293     CD =  0.02854   =>   CDf =  0.00487    CDp =  0.02367
      9.000    9.3346   0.028542   0.022989   0.002305  -0.020684    0.0156     #

 Point added to stored polar  1
 Point written to save file  CLv_NACA_0012_Re1e6.dat                         
 Dump file unspecified or not available
 Calculating wake trajectory ...
 Calculating source influence matrix ...

 Solving BL system ...

 Side 1  free  transition at x/c =  0.0156   30
 Side 2 forced transition at x/c =  1.0000   64

   1   rms: 0.6956E-01   max: 0.1940E+00   D at   85  1
       a = 15.000      CL =  1.3841
      Cm =  0.0314     CD =  0.03153   =>   CDf =  0.00488    CDp =  0.02665

 Side 1  free  transition at x/c =  0.0150   30
 Side 2 forced transition at x/c =  1.0000   64

   2   rms: 0.8464E-02   max: 0.7503E-01   D at   87  1
       a = 15.000      CL =  1.3809
      Cm =  0.0311     CD =  0.03168   =>   CDf =  0.00471    CDp =  0.02697

 Side 1  free  transition at x/c =  0.0151   30
 Side 2 forced transition at x/c =  1.0000   64

   3   rms: 0.5385E-03   max: 0.9686E-02   D at   85  1
       a = 15.000      CL =  1.3810
      Cm =  0.0310     CD =  0.03167   =>   CDf =  0.00471    CDp =  0.02696

 Side 1  free  transition at x/c =  0.0151   30
 Side 2 forced transition at x/c =  1.0000   64

   4   rms: 0.7640E-05   max: 0.1422E-03   D at   85  1
       a = 15.000      CL =  1.3810
      Cm =  0.0310     CD =  0.03167   =>   CDf =  0.00471    CDp =  0.02696
      9.000    9.4933   0.031665   0.022784   0.002330  -0.020455    0.0151     #

 Point added to stored polar  1
 Point written to save file  CLv_NACA_0012_Re1e6.dat                         
 Dump file unspecified or not available
 Calculating wake trajectory ...
 Calculating source influence matrix ...

 Solving BL system ...

 Side 1  free  transition at x/c =  0.0151   30
 Side 2 forced transition at x/c =  1.0000   64

   1   rms: 0.7127E-01   max: 0.2106E+00   D at   82  1
       a = 15.500      CL =  1.3958
      Cm =  0.0318     CD =  0.03539   =>   CDf =  0.00434    CDp =  0.03105

 Side 1  free  transition at x/c =  0.0146   31
 Side 2 forced transition at x/c =  1.0000   63

   2   rms: 0.1210E-01   max: 0.9813E-01   D at   84  1
       a = 15.500      CL =  1.3899
      Cm =  0.0315     CD =  0.03578   =>   CDf =  0.00455    CDp =  0.03123

 Side 1  free  transition at x/c =  0.0146   31
 Side 2 forced transition at x/c =  1.0000   63

   3   rms: 0.8890E-03   max: 0.1435E-01   D at   82  1
       a = 15.500      CL =  1.3901
      Cm =  0.0315     CD =  0.03571   =>   CDf =  0.00454    CDp =  0.03117

 Side 1  free  transition at x/c =  0.0146   31
 Side 2 forced transition at x/c =  1.0000   63

   4   rms: 0.8475E-05   max: 0.1154E-03   D at   82  1
       a = 15.500      CL =  1.3901
      Cm =  0.0315     CD =  0.03571   =>   CDf =  0.00454    CDp =  0.03117
      9.000    9.4910   0.035714   0.022308   0.002318  -0.019991    0.0146     #

 Point added to stored polar  1
 Point written to save file  CLv_NACA_0012_Re1e6.dat                         
 Dump file unspecified or not available
 Calculating wake trajectory ...
 Calculating source influence matrix ...

 Solving BL system ...

 Side 1  free  transition at x/c =  0.0146   31
 Side 2 forced transition at x/c =  1.0000   63

   1   rms: 0.7659E-01   max: 0.2523E+00   D at   80  1   RLX: 0.983
       a = 16.000      CL =  1.3991
      Cm =  0.0308     CD =  0.04079   =>   CDf =  0.00455    CDp =  0.03624

 Side 1  free  transition at x/c =  0.0142   31
 Side 2 forced transition at x/c =  1.0000   63

   2   rms: 0.2245E-01   max: 0.1508E+00   D at   79  1
       a = 16.000      CL =  1.3879
      Cm =  0.0301     CD =  0.04195   =>   CDf =  0.00440    CDp =  0.03755

 Side 1  free  transition at x/c =  0.0142   31
 Side 2 forced transition at x/c =  1.0000   63

   3   rms: 0.2447E-02   max: 0.3247E-01   D at   78  1
       a = 16.000      CL =  1.3871
      Cm =  0.0301     CD =  0.04181   =>   CDf =  0.00436    CDp =  0.03745

 Side 1  free  transition at x/c =  0.0142   31
 Side 2 forced transition at x/c =  1.0000   63

   4   rms: 0.1474E-03   max: 0.1185E-02   D at   76  1
       a = 16.000      CL =  1.3870
      Cm =  0.0302     CD =  0.04179   =>   CDf =  0.00436    CDp =  0.03744

 Side 1  free  transition at x/c =  0.0142   31
 Side 2 forced transition at x/c =  1.0000   63

   5   rms: 0.2995E-05   max: 0.1088E-04   D at   74  2
       a = 16.000      CL =  1.3870
      Cm =  0.0302     CD =  0.04179   =>   CDf =  0.00436    CDp =  0.03743
      9.000    9.5441   0.041790   0.021441   0.002405  -0.019036    0.0142     #

 Point added to stored polar  1
 Point written to save file  CLv_NACA_0012_Re1e6.dat                         
 Dump file unspecified or not available
 Calculating wake trajectory ...
 Calculating source influence matrix ...

 Solving BL system ...

 Side 1  free  transition at x/c =  0.0142   31
 Side 2 forced transition at x/c =  1.0000   63

   1   rms: 0.9387E-01   max: 0.3556E+00   D at   75  1   RLX: 0.856
       a = 16.500      CL =  1.3825
      Cm =  0.0274     CD =  0.04902   =>   CDf =  0.00436    CDp =  0.04466

 Side 1  free  transition at x/c =  0.0139   31
 Side 2 forced transition at x/c =  1.0000   63

   2   rms: 0.3821E-01   max: 0.2402E+00   D at   74  1
       a = 16.500      CL =  1.3667
      Cm =  0.0261     CD =  0.05167   =>   CDf =  0.00418    CDp =  0.04748

 Side 1  free  transition at x/c =  0.0139   31
 Side 2 forced transition at x/c =  1.0000   63

   3   rms: 0.4933E-02   max: 0.5684E-01   D at   72  1
       a = 16.500      CL =  1.3650
      Cm =  0.0263     CD =  0.05125   =>   CDf =  0.00411    CDp =  0.04714

 Side 1  free  transition at x/c =  0.0139   31
 Side 2 forced transition at x/c =  1.0000   63

   4   rms: 0.2900E-03   max: 0.3747E-02   D at   70  1
       a = 16.500      CL =  1.3648
      Cm =  0.0263     CD =  0.05120   =>   CDf =  0.00411    CDp =  0.04710

 Side 1  free  transition at x/c =  0.0139   31
 Side 2 forced transition at x/c =  1.0000   63

   5   rms: 0.7785E-05   max: -.3722E-04   D at   77  2
       a = 16.500      CL =  1.3648
      Cm =  0.0263     CD =  0.05120   =>   CDf =  0.00411    CDp =  0.04710
      9.000    9.8376   0.051201   0.020066   0.002538  -0.017528    0.0139     #

 Point added to stored polar  1
 Point written to save file  CLv_NACA_0012_Re1e6.dat                         
 Dump file unspecified or not available
 Calculating wake trajectory ...
 Calculating source influence matrix ...

 Solving BL system ...

 Side 1  free  transition at x/c =  0.0139   31
 Side 2 forced transition at x/c =  1.0000   63

   1   rms: 0.1165E+00   max: 0.4714E+00   D at   69  1   RLX: 0.733
       a = 17.000      CL =  1.3479
      Cm =  0.0217     CD =  0.06085   =>   CDf =  0.00411    CDp =  0.05673

 Side 1  free  transition at x/c =  0.0137   30
 Side 2 forced transition at x/c =  1.0000   63

   2   rms: 0.3620E-01   max: 0.2402E+00   D at   68  1
       a = 17.000      CL =  1.3377
      Cm =  0.0206     CD =  0.06314   =>   CDf =  0.00391    CDp =  0.05923

 Side 1  free  transition at x/c =  0.0137   30
 Side 2 forced transition at x/c =  1.0000   63

   3   rms: 0.7114E-02   max: 0.6580E-01   D at   66  1
       a = 17.000      CL =  1.3339
      Cm =  0.0208     CD =  0.06281   =>   CDf =  0.00383    CDp =  0.05898

 Side 1  free  transition at x/c =  0.0137   30
 Side 2 forced transition at x/c =  1.0000   63

   4   rms: 0.7161E-03   max: 0.4459E-02   D at   76  2
       a = 17.000      CL =  1.3333
      Cm =  0.0208     CD =  0.06273   =>   CDf =  0.00383    CDp =  0.05890

 Side 1  free  transition at x/c =  0.0137   30
 Side 2 forced transition at x/c =  1.0000   63

   5   rms: 0.5319E-04   max: 0.4258E-03   D at   76  2
       a = 17.000      CL =  1.3333
      Cm =  0.0208     CD =  0.06272   =>   CDf =  0.00383    CDp =  0.05889
      9.000    9.9231   0.062720   0.018472   0.002635  -0.015837    0.0137     #

 Point added to stored polar  1
 Point written to save file  CLv_NACA_0012_Re1e6.dat                         
 Dump file unspecified or not available
 Calculating wake trajectory ...
 Calculating source influence matrix ...

 Solving BL system ...

 Side 1  free  transition at x/c =  0.0137   30
 Side 2 forced transition at x/c =  1.0000   63

   1   rms: 0.8455E-01   max: 0.3553E+00   D at   63  1   RLX: 0.662
       a = 17.500      CL =  1.3284
      Cm =  0.0170     CD =  0.07042   =>   CDf =  0.00383    CDp =  0.06658

 Side 1  free  transition at x/c =  0.0136   30
 Side 2 forced transition at x/c =  1.0000   63

   2   rms: 0.4403E-01   max: 0.2418E+00   D at   63  1
       a = 17.500      CL =  1.3123
      Cm =  0.0149     CD =  0.07496   =>   CDf =  0.00368    CDp =  0.07128

 Side 1  free  transition at x/c =  0.0136   30
 Side 2 forced transition at x/c =  1.0000   63

   3   rms: 0.1072E-01   max: 0.8110E-01   D at   61  1
       a = 17.500      CL =  1.3059
      Cm =  0.0150     CD =  0.07457   =>   CDf =  0.00358    CDp =  0.07099

 Side 1  free  transition at x/c =  0.0136   30
 Side 2 forced transition at x/c =  1.0000   63

   4   rms: 0.1402E-02   max: 0.1193E-01   D at   60  1
       a = 17.500      CL =  1.3049
      Cm =  0.0150     CD =  0.07442   =>   CDf =  0.00357    CDp =  0.07085

 Side 1  free  transition at x/c =  0.0136   30
 Side 2 forced transition at x/c =  1.0000   63

   5   rms: 0.1330E-03   max: 0.7544E-03   D at   77  2
       a = 17.500      CL =  1.3048
      Cm =  0.0150     CD =  0.07439   =>   CDf =  0.00357    CDp =  0.07082

 Side 1  free  transition at x/c =  0.0136   30
 Side 2 forced transition at x/c =  1.0000   63

   6   rms: 0.8116E-05   max: 0.4963E-04   D at   77  2
       a = 17.500      CL =  1.3048
      Cm =  0.0150     CD =  0.07439   =>   CDf =  0.00357    CDp =  0.07082
      9.000    9.5959   0.074390   0.016857   0.002636  -0.014221    0.0136     #

 Point added to stored polar  1
 Point written to save file  CLv_NACA_0012_Re1e6.dat                         
 Dump file unspecified or not available
 Calculating wake trajectory ...
 Calculating source influence matrix ...

 Solving BL system ...

 Side 1  free  transition at x/c =  0.0136   30
 Side 2 forced transition at x/c =  1.0000   63

   1   rms: 0.8674E-01   max: 0.3872E+00   D at   59  1   RLX: 0.588
       a = 18.000      CL =  1.2955
      Cm =  0.0110     CD =  0.08268   =>   CDf =  0.00358    CDp =  0.07910

 Side 1  free  transition at x/c =  0.0135   30
 Side 2 forced transition at x/c =  1.0000   63

   2   rms: 0.5053E-01   max: 0.2712E+00   D at   58  1
       a = 18.000      CL =  1.2767
      Cm =  0.0080     CD =  0.08895   =>   CDf =  0.00344    CDp =  0.08551

 Side 1  free  transition at x/c =  0.0135   30
 Side 2 forced transition at x/c =  1.0000   63

   3   rms: 0.1204E-01   max: 0.9180E-01   D at   57  1
       a = 18.000      CL =  1.2694
      Cm =  0.0082     CD =  0.08813   =>   CDf =  0.00333    CDp =  0.08479

 Side 1  free  transition at x/c =  0.0135   30
 Side 2 forced transition at x/c =  1.0000   63

   4   rms: 0.1604E-02   max: 0.1538E-01   D at   56  1
       a = 18.000      CL =  1.2685
      Cm =  0.0082     CD =  0.08786   =>   CDf =  0.00332    CDp =  0.08453

 Side 1  free  transition at x/c =  0.0136   30
 Side 2 forced transition at x/c =  1.0000   63

   5   rms: 0.1484E-03   max: 0.7952E-03   D at   78  2
       a = 18.000      CL =  1.2684
      Cm =  0.0082     CD =  0.08781   =>   CDf =  0.00332    CDp =  0.08449

 Side 1  free  transition at x/c =  0.0136   30
 Side 2 forced transition at x/c =  1.0000   63

   6   rms: 0.6279E-05   max: 0.4488E-04   D at   78  2
       a = 18.000      CL =  1.2684
      Cm =  0.0082     CD =  0.08781   =>   CDf =  0.00332    CDp =  0.08449
      9.000    9.7662   0.087810   0.015273   0.002630  -0.012643    0.0136     #

 Point added to stored polar  1
 Point written to save file  CLv_NACA_0012_Re1e6.dat                         
 Dump file unspecified or not available

.OPERva   c>  
 Polar accumulation disabled

.OPERv   c>  
 XFOIL   c>  
 ===================================================
  XFOIL Version 6.99
  Copyright (C) 2000   Mark Drela, Harold Youngren

  This software comes with ABSOLUTELY NO WARRANTY,
    subject to the GNU General Public License.

  Caveat computor
 ===================================================

 File  xfoil.def  not found

   QUIT    Exit program

  .OPER    Direct operating point(s)
  .MDES    Complex mapping design routine
  .QDES    Surface speed design routine
  .GDES    Geometry design routine

   SAVE f  Write airfoil to labeled coordinate file
   PSAV f  Write airfoil to plain coordinate file
   ISAV f  Write airfoil to ISES coordinate file
   MSAV f  Write airfoil to MSES coordinate file
   REVE    Reverse written-airfoil node ordering
   DELI i  Change written-airfoil file delimiters

   LOAD f  Read buffer airfoil from coordinate file
   NACA i  Set NACA 4,5-digit airfoil and buffer airfoil
   INTE    Set buffer airfoil by interpolating two airfoils
   NORM    Buffer airfoil normalization toggle
   HALF    Halve the number of points in buffer airfoil
   XYCM rr Change CM reference location, currently  0.25000 0.00000

   BEND    Display structural properties of current airfoil

   PCOP    Set current-airfoil panel nodes directly from buffer airfoil points
   PANE    Set current-airfoil panel nodes ( 160 ) based on curvature
  .PPAR    Show/change paneling

  .PLOP    Plotting options

   WDEF f  Write  current-settings file
   RDEF f  Reread current-settings file
   NAME s  Specify new airfoil name
   NINC    Increment name version number

   Z       Zoom    | (available in all menus)
   U       Unzoom  | 

 XFOIL   c>  
 Labeled airfoil file.  Name:  NACA 0016                                       

 Number of input coordinate points: 201
 Counterclockwise ordering
 Max thickness =     0.160044  at x =   0.301
 Max camber    =     0.000000  at x =   0.048

  LE  x,y  =   0.00000   0.00000  |   Chord =   1.00000
  TE  x,y  =   1.00000   0.00000  |

 Current airfoil nodes set from buffer airfoil nodes ( 201 )

 XFOIL   c>  
 Blunt trailing edge.  Gap =  0.00336

 Paneling parameters used...
   Number of panel nodes       160
   Panel bunching parameter    1.000
   TE/LE panel density ratio   0.150
   Refined-area/LE panel density ratio    0.200
   Top    side refined area x/c limits  1.000 1.000
   Bottom side refined area x/c limits  1.000 1.000

 XFOIL   c>  
.OPERi   c>  
 M  =    0.0000
 Re =  0.1000E+07

.OPERv   c>  
 Polar  1 newly created for accumulation
 Airfoil archived with polar: NACA 0016                                       

Enter  polar save filename  OR  <return> for no file   s>  
 New polar save file available

Enter  polar dump filename  OR  <return> for no file   s>  
 Polar dump file will NOT be written

 Polar accumulation enabled

.OPERva   c>   Calculating unit vorticity distributions ...
 Calculating wake trajectory ...
 Calculating source influence matrix ...

 Solving BL system ...

 Initializing BL ...
    side            1  ...
 MRCHUE: Inverse mode at  57     Hk =   4.529
 MRCHUE: Inverse mode at  58     Hk =   5.549
 MRCHUE: Inverse mode at  59     Hk =   5.508
 MRCHUE: Inverse mode at  60     Hk =   2.500
 MRCHUE: Inverse mode at  78     Hk =   2.500
    side            2  ...
 MRCHUE: Inverse mode at  50     Hk =   4.909
 MRCHUE: Inverse mode at  51     Hk =   5.156
 MRCHUE: Inverse mode at  52     Hk =   2.500
 MRCHUE: Inverse mode at  84     Hk =   2.500

 Side 1  free  transition at x/c =  0.6625   59
 Side 2  free  transition at x/c =  0.3946   51

   1   rms: 0.1626E+00   max: -.8912E+00   D at   78  1   RLX: 0.561
       a = -2.000      CL = -0.2000
      Cm = -0.0058     CD =  0.00648   =>   CDf =  0.00567    CDp =  0.00081

 Side 1  free  transition at x/c =  0.6833   60
 Side 2  free  transition at x/c =  0.4117   52

   2   rms: 0.6986E-01   max: -.5689E+00   D at   78  1   RLX: 0.879
       a = -2.000      CL = -0.1974
      Cm = -0.0066     CD =  0.00701   =>   CDf =  0.00553    CDp =  0.00148

 Side 1  free  transition at x/c =  0.7546   64
 Side 2  free  transition at x/c =  0.4601   55

   3   rms: 0.3683E-01   max: 0.4610E+00   C at   64  1
       a = -2.000      CL = -0.2166
      Cm = -0.0023     CD =  0.00676   =>   CDf =  0.00489    CDp =  0.00188

 Side 1  free  transition at x/c =  0.7377   63
 Side 2  free  transition at x/c =  0.4502   54

   4   rms: 0.4855E-02   max: -.7937E-01   D at   63  1
       a = -2.000      CL = -0.2181
      Cm = -0.0019     CD =  0.00680   =>   CDf =  0.00499    CDp =  0.00181

 Side 1  free  transition at x/c =  0.7316   63
 Side 2  free  transition at x/c =  0.4489   54

   5   rms: 0.6927E-03   max: -.1236E-01   C at   63  1
       a = -2.000      CL = -0.2183
      Cm = -0.0019     CD =  0.00681   =>   CDf =  0.00500    CDp =  0.00180

 Side 1  free  transition at x/c =  0.7319   63
 Side 2  free  transition at x/c =  0.4489   54

   6   rms: 0.6230E-05   max: 0.1094E-03   C at   63  1
       a = -2.000      CL = -0.2183
      Cm = -0.0019     CD =  0.00681   =>   CDf =  0.00500    CDp =  0.00181
      9.000    3.4207   0.006808   0.000000   0.000000   0.000000    0.7319     #

 Point added to stored polar  1
 Point written to save file  CLv_NACA_0016_Re1e6.dat                         
 Dump file unspecified or not available
 Calculating wake trajectory ...
 Calculating source influence matrix ...

 Solving BL system ...

 Side 1  free  transition at x/c =  0.7319   63
 Side 2  free  transition at x/c =  0.4489   54

   1   rms: 0.9122E-01   max: 0.7875E+00   C at   63  1   RLX: 0.679
       a = -1.500      CL = -0.1809
      Cm = -0.0016     CD =  0.00679   =>   CDf =  0.00500    CDp =  0.00178

 Side 1  free  transition at x/c =  0.7044   62
 Side 2  free  transition at x/c =  0.4678   55

   2   rms: 0.2804E-01   max: -.2021E+00   C at   55  2
       a = -1.500      CL = -0.1635
      Cm = -0.0014     CD =  0.00681   =>   CDf =  0.00509    CDp =  0.00172

 Side 1  free  transition at x/c =  0.6960   62
[...]
      Cm = -0.0106     CD =  0.00733   =>   CDf =  0.00583    CDp =  0.00150

 Side 1  free  transition at x/c =  0.6886   60
 Side 2  free  transition at x/c =  0.2358   36

  13   rms: 0.1037E+02   max: -.2495E+03   C at   36  2   RLX: 0.002
       a = -1.000      CL = -0.0577
      Cm = -0.0106     CD =  0.00731   =>   CDf =  0.00579    CDp =  0.00151

 Side 1  free  transition at x/c =  0.6885   60
 Side 2  free  transition at x/c =  0.2449   37

  14   rms: 0.7906E+01   max: -.1898E+03   C at   37  2   RLX: 0.003
       a = -1.000      CL = -0.0579
      Cm = -0.0105     CD =  0.00725   =>   CDf =  0.00576    CDp =  0.00149

 Side 1  free  transition at x/c =  0.6884   60
 Side 2  free  transition at x/c =  0.2565   38

  15   rms: 0.6810E+01   max: -.1519E+03   C at   38  2   RLX: 0.003
       a = -1.000      CL = -0.0580
      Cm = -0.0105     CD =  0.00719   =>   CDf =  0.00572    CDp =  0.00147

 Side 1  free  transition at x/c =  0.6882   60
 Side 2  free  transition at x/c =  0.2535   37

  16   rms: 0.2211E+01   max: -.5288E+02   C at   37  2   RLX: 0.009
       a = -1.000      CL = -0.0571
      Cm = -0.0105     CD =  0.00723   =>   CDf =  0.00573    CDp =  0.00150

 Side 1  free  transition at x/c =  0.6875   60
 Side 2  free  transition at x/c =  0.2824   39

  17   rms: 0.1966E+01   max: -.4695E+02   C at   39  2   RLX: 0.011
       a = -1.000      CL = -0.0571
      Cm = -0.0104     CD =  0.00710   =>   CDf =  0.00563    CDp =  0.00147

 Side 1  free  transition at x/c =  0.6869   59
 Side 2  free  transition at x/c =  0.2883   40

  18   rms: 0.1269E+01   max: -.2755E+02   C at   40  2   RLX: 0.018
       a = -1.000      CL = -0.0559
      Cm = -0.0103     CD =  0.00704   =>   CDf =  0.00561    CDp =  0.00143

 Side 1  free  transition at x/c =  0.6856   59
 Side 2  free  transition at x/c =  0.2997   40

  19   rms: 0.1397E+01   max: -.3320E+02   C at   40  2   RLX: 0.015
       a = -1.000      CL = -0.0546
      Cm = -0.0103     CD =  0.00703   =>   CDf =  0.00557    CDp =  0.00145

 Side 1  free  transition at x/c =  0.6845   59
 Side 2  free  transition at x/c =  0.3111   41

  20   rms: 0.1173E+01   max: -.2740E+02   C at   41  2   RLX: 0.018
       a = -1.000      CL = -0.0535
      Cm = -0.0103     CD =  0.00696   =>   CDf =  0.00553    CDp =  0.00143

 Side 1  free  transition at x/c =  0.6831   59
 Side 2  free  transition at x/c =  0.3200   42

  21   rms: 0.8377E+00   max: -.1640E+02   C at   42  2   RLX: 0.030
       a = -1.000      CL = -0.0514
      Cm = -0.0102     CD =  0.00690   =>   CDf =  0.00551    CDp =  0.00139

 Side 1  free  transition at x/c =  0.6808   59
 Side 2  free  transition at x/c =  0.3324   42

  22   rms: 0.9892E+00   max: -.2313E+02   C at   42  2   RLX: 0.022
       a = -1.000      CL = -0.0497
      Cm = -0.0102     CD =  0.00688   =>   CDf =  0.00547    CDp =  0.00142

 Side 1  free  transition at x/c =  0.6791   59
 Side 2  free  transition at x/c =  0.3419   43

  23   rms: 0.8479E+00   max: -.1917E+02   C at   43  2   RLX: 0.026
       a = -1.000      CL = -0.0480
      Cm = -0.0101     CD =  0.00683   =>   CDf =  0.00543    CDp =  0.00139

 Side 1  free  transition at x/c =  0.6771   59
 Side 2  free  transition at x/c =  0.3521   43

  24   rms: 0.7959E+00   max: -.1829E+02   C at   43  2   RLX: 0.027
       a = -1.000      CL = -0.0461
      Cm = -0.0101     CD =  0.00681   =>   CDf =  0.00541    CDp =  0.00140

 Side 1  free  transition at x/c =  0.6751   59
 Side 2  free  transition at x/c =  0.3654   44

  25   rms: 0.6955E+00   max: -.1593E+02   C at   44  2   RLX: 0.031
       a = -1.000      CL = -0.0443
      Cm = -0.0100     CD =  0.00676   =>   CDf =  0.00537    CDp =  0.00139

 Side 1  free  transition at x/c =  0.6729   59
 Side 2  free  transition at x/c =  0.3798   45

  26   rms: 0.5985E+00   max: -.1352E+02   C at   45  2   RLX: 0.037
       a = -1.000      CL = -0.0422
      Cm = -0.0100     CD =  0.00670   =>   CDf =  0.00532    CDp =  0.00138

 Side 1  free  transition at x/c =  0.6705   59
 Side 2  free  transition at x/c =  0.3900   46

  27   rms: 0.5178E+00   max: -.1102E+02   C at   46  2   RLX: 0.045
       a = -1.000      CL = -0.0394
      Cm = -0.0099     CD =  0.00665   =>   CDf =  0.00530    CDp =  0.00135

 Side 1  free  transition at x/c =  0.6682   58
 Side 2  free  transition at x/c =  0.4006   46

  28   rms: 0.4727E+00   max: -.1059E+02   C at   46  2   RLX: 0.047
       a = -1.000      CL = -0.0363
      Cm = -0.0099     CD =  0.00663   =>   CDf =  0.00527    CDp =  0.00136

 Side 1  free  transition at x/c =  0.6651   58
 Side 2  free  transition at x/c =  0.4144   47

  29   rms: 0.4810E+00   max: -.1076E+02   C at   47  2   RLX: 0.046
       a = -1.000      CL = -0.0339
      Cm = -0.0098     CD =  0.00657   =>   CDf =  0.00522    CDp =  0.00134

 Side 1  free  transition at x/c =  0.6620   58
 Side 2  free  transition at x/c =  0.4275   48

  30   rms: 0.4382E+00   max: -.9645E+01   C at   48  2   RLX: 0.052
       a = -1.000      CL = -0.0312
      Cm = -0.0097     CD =  0.00651   =>   CDf =  0.00518    CDp =  0.00133

 Side 1  free  transition at x/c =  0.6588   58
 Side 2  free  transition at x/c =  0.4375   49

  31   rms: 0.3657E+00   max: -.7236E+01   C at   49  2   RLX: 0.069
       a = -1.000      CL = -0.0278
      Cm = -0.0097     CD =  0.00646   =>   CDf =  0.00517    CDp =  0.00130

 Side 1  free  transition at x/c =  0.6549   58
 Side 2  free  transition at x/c =  0.4489   49

  32   rms: 0.3294E+00   max: -.7140E+01   C at   49  2   RLX: 0.070
       a = -1.000      CL = -0.0242
      Cm = -0.0097     CD =  0.00647   =>   CDf =  0.00514    CDp =  0.00132

 Side 1  free  transition at x/c =  0.6519   57
 Side 2  free  transition at x/c =  0.4617   50

  33   rms: 0.3165E+00   max: -.6896E+01   C at   50  2   RLX: 0.073
       a = -1.000      CL = -0.0210
      Cm = -0.0096     CD =  0.00640   =>   CDf =  0.00511    CDp =  0.00130

 Side 1  free  transition at x/c =  0.6483   57
 Side 2  free  transition at x/c =  0.4743   51

  34   rms: 0.2876E+00   max: -.6066E+01   C at   51  2   RLX: 0.082
       a = -1.000      CL = -0.0177
      Cm = -0.0095     CD =  0.00635   =>   CDf =  0.00507    CDp =  0.00128

 Side 1  free  transition at x/c =  0.6443   57
 Side 2  free  transition at x/c =  0.4847   51

  35   rms: 0.1755E+00   max: -.3456E+01   C at   51  2   RLX: 0.145
       a = -1.000      CL = -0.0118
      Cm = -0.0095     CD =  0.00636   =>   CDf =  0.00506    CDp =  0.00130

 Side 1  free  transition at x/c =  0.6378   57
 Side 2  free  transition at x/c =  0.5113   53

  36   rms: 0.1939E+00   max: -.4034E+01   C at   53  2   RLX: 0.124
       a = -1.000      CL = -0.0087
      Cm = -0.0092     CD =  0.00626   =>   CDf =  0.00498    CDp =  0.00128

 Side 1  free  transition at x/c =  0.6344   56
 Side 2  free  transition at x/c =  0.5217   54

  37   rms: 0.1546E+00   max: -.2968E+01   C at   54  2   RLX: 0.168
       a = -1.000      CL = -0.0038
      Cm = -0.0092     CD =  0.00620   =>   CDf =  0.00495    CDp =  0.00125

 Side 1  free  transition at x/c =  0.6289   57
 Side 2  free  transition at x/c =  0.5332   53

  38   rms: 0.1272E+00   max: -.2214E+01   C at   53  2   RLX: 0.226
       a = -1.000      CL =  0.0019
      Cm = -0.0092     CD =  0.00621   =>   CDf =  0.00494    CDp =  0.00126

 Side 1  free  transition at x/c =  0.6228   57
 Side 2  free  transition at x/c =  0.5492   54

  39   rms: 0.6894E-01   max: -.1229E+01   C at   54  2   RLX: 0.407
       a = -1.000      CL =  0.0093
      Cm = -0.0090     CD =  0.00619   =>   CDf =  0.00492    CDp =  0.00127

 Side 1  free  transition at x/c =  0.6163   56
 Side 2  free  transition at x/c =  0.5767   56

  40   rms: 0.4690E-01   max: -.8919E+00   C at   56  2   RLX: 0.561
       a = -1.000      CL =  0.0148
      Cm = -0.0087     CD =  0.00607   =>   CDf =  0.00484    CDp =  0.00123

 Side 1  free  transition at x/c =  0.6096   56
 Side 2  free  transition at x/c =  0.5862   57

  41   rms: 0.2499E-01   max: -.4355E+00   C at   57  2
       a = -1.000      CL =  0.0194
      Cm = -0.0086     CD =  0.00604   =>   CDf =  0.00484    CDp =  0.00120

 Side 1  free  transition at x/c =  0.6051   56
 Side 2  free  transition at x/c =  0.5995   57

  42   rms: 0.3368E-02   max: -.7371E-01   C at   57  2
       a = -1.000      CL =  0.0195
      Cm = -0.0087     CD =  0.00606   =>   CDf =  0.00481    CDp =  0.00125

 Side 1  free  transition at x/c =  0.6053   56
 Side 2  free  transition at x/c =  0.6015   57

  43   rms: 0.9842E-04   max: -.2198E-02   C at   57  2
       a = -1.000      CL =  0.0196
      Cm = -0.0087     CD =  0.00606   =>   CDf =  0.00480    CDp =  0.00126
      9.000    3.1405   0.006062   0.000000   0.000000   0.000000    0.6053     #

.OPERv   c>  
.OPERv   c>   Calculating wake trajectory ...
 Calculating source influence matrix ...

 Solving BL system ...

 Side 1  free  transition at x/c =  0.6053   56
 Side 2  free  transition at x/c =  0.6016   57

   1   rms: 0.3295E+00   max: -.5353E+01   C at   57  2   RLX: 0.093
       a =  0.000      CL =  0.0294
      Cm = -0.0085     CD =  0.00607   =>   CDf =  0.00480    CDp =  0.00127

 Side 1  free  transition at x/c =  0.5966   55
 Side 2  free  transition at x/c =  0.6230   59

   2   rms: 0.3295E+00   max: -.5470E+01   C at   59  2   RLX: 0.091
       a =  0.000      CL =  0.0377
      Cm = -0.0083     CD =  0.00597   =>   CDf =  0.00475    CDp =  0.00122

 Side 1  free  transition at x/c =  0.5873   55
 Side 2  free  transition at x/c =  0.6355   60

   3   rms: 0.2808E+00   max: -.3835E+01   C at   60  2   RLX: 0.130
       a =  0.000      CL =  0.0488
      Cm = -0.0081     CD =  0.00597   =>   CDf =  0.00477    CDp =  0.00120

 Side 1  free  transition at x/c =  0.5769   54
 Side 2  free  transition at x/c =  0.6509   60

   4   rms: 0.2030E+00   max: -.2486E+01   C at   60  2   RLX: 0.201
       a =  0.000      CL =  0.0650
      Cm = -0.0082     CD =  0.00601   =>   CDf =  0.00475    CDp =  0.00126

 Side 1  free  transition at x/c =  0.5613   53
 Side 2  free  transition at x/c =  0.6777   62

   5   rms: 0.1991E+00   max: -.3296E+01   C at   62  2   RLX: 0.152
       a =  0.000      CL =  0.0736
      Cm = -0.0078     CD =  0.00593   =>   CDf =  0.00468    CDp =  0.00125

 Side 1  free  transition at x/c =  0.5519   53
 Side 2  free  transition at x/c =  0.6873   62

   6   rms: 0.1473E+00   max: -.2066E+01   C at   62  2   RLX: 0.242
       a =  0.000      CL =  0.0862
      Cm = -0.0077     CD =  0.00590   =>   CDf =  0.00474    CDp =  0.00117

 Side 1  free  transition at x/c =  0.5375   53
 Side 2  free  transition at x/c =  0.7018   62

   7   rms: 0.9772E-01   max: -.1196E+01   C at   62  2   RLX: 0.418
       a =  0.000      CL =  0.1029
      Cm = -0.0076     CD =  0.00604   =>   CDf =  0.00475    CDp =  0.00129

 Side 1  free  transition at x/c =  0.5215   52
 Side 2  free  transition at x/c =  0.7319   64

   8   rms: 0.5252E-01   max: 0.5394E+00   C at   52  1
       a =  0.000      CL =  0.1255
      Cm = -0.0071     CD =  0.00605   =>   CDf =  0.00471    CDp =  0.00133

 Side 1  free  transition at x/c =  0.5010   50
 Side 2  free  transition at x/c =  0.7973   68

   9   rms: 0.1891E-01   max: 0.2722E+00   C at   68  2
       a =  0.000      CL =  0.1232
      Cm = -0.0065     CD =  0.00585   =>   CDf =  0.00454    CDp =  0.00130

 Side 1  free  transition at x/c =  0.5028   50
 Side 2  free  transition at x/c =  0.7820   67

  10   rms: 0.2541E-02   max: -.4351E-01   D at   67  2
       a =  0.000      CL =  0.1238
      Cm = -0.0066     CD =  0.00588   =>   CDf =  0.00459    CDp =  0.00128

 Side 1  free  transition at x/c =  0.5025   50
 Side 2  free  transition at x/c =  0.7796   67

  11   rms: 0.2261E-03   max: -.4485E-02   C at   67  2
       a =  0.000      CL =  0.1238
      Cm = -0.0066     CD =  0.00588   =>   CDf =  0.00459    CDp =  0.00128

 Side 1  free  transition at x/c =  0.5025   50
 Side 2  free  transition at x/c =  0.7797   67

  12   rms: 0.3929E-06   max: 0.7672E-05   C at   67  2
       a =  0.000      CL =  0.1238
      Cm = -0.0066     CD =  0.00588   =>   CDf =  0.00459    CDp =  0.00128
      9.000    3.1382   0.005877   0.000000   0.000000   0.000000    0.5025     #

.OPERv   c>  
.OPERv   c>   Calculating wake trajectory ...
 Calculating source influence matrix ...

 Solving BL system ...

 Side 1  free  transition at x/c =  0.5025   50
 Side 2  free  transition at x/c =  0.7797   67

   1   rms: 0.2585E+00   max: -.3477E+01   C at   67  2   RLX: 0.144
       a =  1.000      CL =  0.1391
      Cm = -0.0064     CD =  0.00586   =>   CDf =  0.00456    CDp =  0.00130

 Side 1  free  transition at x/c =  0.4860   50
 Side 2  free  transition at x/c =  0.7958   67

   2   rms: 0.2099E+00   max: -.2280E+01   C at   67  2   RLX: 0.219
       a =  1.000      CL =  0.1595
      Cm = -0.0062     CD =  0.00590   =>   CDf =  0.00461    CDp =  0.00129

 Side 1  free  transition at x/c =  0.4666   49
 Side 2  free  transition at x/c =  0.8165   68

   3   rms: 0.1434E+00   max: -.1342E+01   C at   68  2   RLX: 0.373
       a =  1.000      CL =  0.1864
      Cm = -0.0059     CD =  0.00598   =>   CDf =  0.00462    CDp =  0.00136

 Side 1  free  transition at x/c =  0.4398   48
 Side 2  free  transition at x/c =  0.8493   70

   4   rms: 0.1020E+00   max: -.1102E+01   C at   70  2   RLX: 0.454
       a =  1.000      CL =  0.2047
      Cm = -0.0049     CD =  0.00607   =>   CDf =  0.00461    CDp =  0.00146

 Side 1  free  transition at x/c =  0.4230   47
 Side 2  free  transition at x/c =  0.8712   72

   5   rms: 0.6301E-01   max: -.5726E+00   C at   72  2   RLX: 0.873
       a =  1.000      CL =  0.2242
      Cm = -0.0041     CD =  0.00608   =>   CDf =  0.00459    CDp =  0.00149

 Side 1  free  transition at x/c =  0.4050   47
 Side 2  free  transition at x/c =  0.8857   71

   6   rms: 0.1561E-01   max: -.1928E+00   D at   71  2
       a =  1.000      CL =  0.2286
      Cm = -0.0045     CD =  0.00617   =>   CDf =  0.00471    CDp =  0.00146

 Side 1  free  transition at x/c =  0.4032   46
 Side 2  free  transition at x/c =  0.9053   73

   7   rms: 0.8960E-02   max: 0.1248E+00   C at   73  2
       a =  1.000      CL =  0.2278
      Cm = -0.0042     CD =  0.00615   =>   CDf =  0.00461    CDp =  0.00153

 Side 1  free  transition at x/c =  0.4033   46
 Side 2  free  transition at x/c =  0.8998   72

   8   rms: 0.1724E-02   max: -.3133E-01   D at   74  2
       a =  1.000      CL =  0.2277
      Cm = -0.0042     CD =  0.00614   =>   CDf =  0.00462    CDp =  0.00152

 Side 1  free  transition at x/c =  0.4033   46
 Side 2  free  transition at x/c =  0.8986   72

   9   rms: 0.5865E-04   max: -.1145E-02   C at   72  2
       a =  1.000      CL =  0.2277
      Cm = -0.0042     CD =  0.00614   =>   CDf =  0.00462    CDp =  0.00151
      9.000    3.1785   0.006136   0.000000   0.000000   0.000000    0.4033     #

.OPERv   c>  
.OPERv   c>   Calculating wake trajectory ...
 Calculating source influence matrix ...

 Solving BL system ...

 Side 1  free  transition at x/c =  0.4033   46
 Side 2  free  transition at x/c =  0.8986   72

   1   rms: 0.2071E+00   max: 0.2418E+01   C at   46  1   RLX: 0.481
       a =  2.000      CL =  0.2787
      Cm = -0.0032     CD =  0.00628   =>   CDf =  0.00462    CDp =  0.00166

 Side 1  free  transition at x/c =  0.3557   44
 Side 2  free  transition at x/c =  0.9132   73

   2   rms: 0.1030E+00   max: -.6700E+00   D at   44  1   RLX: 0.746
       a =  2.000      CL =  0.3203
      Cm = -0.0031     CD =  0.00672   =>   CDf =  0.00479    CDp =  0.00192

 Side 1  free  transition at x/c =  0.3245   43
 Side 2  free  transition at x/c =  0.9406   74

   3   rms: 0.3204E-01   max: 0.2467E+00   D at   74  2
       a =  2.000      CL =  0.3349
      Cm = -0.0026     CD =  0.00675   =>   CDf =  0.00490    CDp =  0.00185

 Side 1  free  transition at x/c =  0.3171   42
 Side 2  free  transition at x/c =  0.9467   74

   4   rms: 0.4189E-02   max: -.5084E-01   C at   74  2
       a =  2.000      CL =  0.3344
      Cm = -0.0025     CD =  0.00674   =>   CDf =  0.00491    CDp =  0.00182

 Side 1  free  transition at x/c =  0.3166   42
 Side 2  free  transition at x/c =  0.9485   74

   5   rms: 0.1393E-03   max: -.1592E-02   D at   74  2
       a =  2.000      CL =  0.3345
      Cm = -0.0025     CD =  0.00674   =>   CDf =  0.00491    CDp =  0.00182

 Side 1  free  transition at x/c =  0.3166   42
 Side 2  free  transition at x/c =  0.9485   74

   6   rms: 0.4700E-06   max: 0.3774E-05   D at   81  2
       a =  2.000      CL =  0.3345
      Cm = -0.0025     CD =  0.00674   =>   CDf =  0.00491    CDp =  0.00182
      9.000    3.4557   0.006736   0.000000   0.000000   0.000000    0.3166     #

.OPERv   c>  
.OPERv   c>   Calculating wake trajectory ...
 Calculating source influence matrix ...

 Solving BL system ...

 Side 1  free  transition at x/c =  0.3166   42
 Side 2  free  transition at x/c =  0.9485   74

   1   rms: 0.1947E+00   max: 0.2380E+01   C at   42  1   RLX: 0.630
       a =  3.000      CL =  0.4006
      Cm = -0.0013     CD =  0.00709   =>   CDf =  0.00489    CDp =  0.00220

 Side 1  free  transition at x/c =  0.2770   41
 Side 2  free  transition at x/c =  0.9721   75

   2   rms: 0.8356E-01   max: -.5288E+00   D at   41  1   RLX: 0.946
       a =  3.000      CL =  0.4525
      Cm = -0.0042     CD =  0.00747   =>   CDf =  0.00508    CDp =  0.00239

 Side 1  free  transition at x/c =  0.2585   41
 Side 2  free  transition at x/c =  0.9754   74

   3   rms: 0.1091E-01   max: -.1400E+00   D at   42  1
       a =  3.000      CL =  0.4526
      Cm = -0.0036     CD =  0.00744   =>   CDf =  0.00521    CDp =  0.00224

 Side 1  free  transition at x/c =  0.2577   41
 Side 2  free  transition at x/c =  0.9767   74

   4   rms: 0.7402E-03   max: -.7498E-02   D at   41  1
       a =  3.000      CL =  0.4524
      Cm = -0.0036     CD =  0.00744   =>   CDf =  0.00520    CDp =  0.00224

 Side 1  free  transition at x/c =  0.2574   41
 Side 2  free  transition at x/c =  0.9769   74

   5   rms: 0.1331E-04   max: -.2462E-03   D at   41  1
       a =  3.000      CL =  0.4524
      Cm = -0.0036     CD =  0.00744   =>   CDf =  0.00521    CDp =  0.00223
      9.000    3.9495   0.007439   0.000000   0.000000   0.000000    0.2574     #

.OPERv   c>  
.OPERv   c>   Calculating wake trajectory ...
 Calculating source influence matrix ...

 Solving BL system ...

 Side 1  free  transition at x/c =  0.2574   41
 Side 2  free  transition at x/c =  0.9769   74

   1   rms: 0.1895E+00   max: -.1033E+01   D at   41  1   RLX: 0.484
       a =  4.000      CL =  0.5107
      Cm = -0.0045     CD =  0.00787   =>   CDf =  0.00520    CDp =  0.00267

 Side 1  free  transition at x/c =  0.2380   39
 Side 2  free  transition at x/c =  0.9880   75

   2   rms: 0.1034E+00   max: 0.4234E+00   D at   76  2
       a =  4.000      CL =  0.5887
      Cm = -0.0089     CD =  0.00798   =>   CDf =  0.00529    CDp =  0.00269

 Side 1  free  transition at x/c =  0.2244   39
 Side 2  free  transition at x/c =  0.9903   74

   3   rms: 0.8814E-02   max: -.9449E-01   C at   39  1
       a =  4.000      CL =  0.5916
      Cm = -0.0096     CD =  0.00809   =>   CDf =  0.00539    CDp =  0.00270

 Side 1  free  transition at x/c =  0.2237   39
 Side 2  free  transition at x/c =  0.9878   74

   4   rms: 0.9096E-03   max: -.1131E-01   D at   75  2
       a =  4.000      CL =  0.5912
      Cm = -0.0095     CD =  0.00810   =>   CDf =  0.00539    CDp =  0.00271

 Side 1  free  transition at x/c =  0.2237   39
 Side 2  free  transition at x/c =  0.9881   74

   5   rms: 0.9675E-05   max: -.1300E-03   D at   75  2
       a =  4.000      CL =  0.5912
      Cm = -0.0095     CD =  0.00810   =>   CDf =  0.00539    CDp =  0.00271
      9.000    4.4009   0.008098   0.001149   0.001274   0.000125    0.2237     #

.OPERv   c>  
.OPERv   c>  
 XFOIL   c>  