
 ===================================================
  XFOIL Version 6.99
  Copyright (C) 2000   Mark Drela, Harold Youngren

  This software comes with ABSOLUTELY NO WARRANTY,
    subject to the GNU General Public License.

  Caveat computor
 ===================================================

 File  xfoil.def  not found

   QUIT    Exit program

  .OPER    Direct operating point(s)
  .MDES    Complex mapping design routine
  .QDES    Surface speed design routine
  .GDES    Geometry design routine

   SAVE f  Write airfoil to labeled coordinate file
   PSAV f  Write airfoil to plain coordinate file
   ISAV f  Write airfoil to ISES coordinate file
   MSAV f  Write airfoil to MSES coordinate file
   REVE    Reverse written-airfoil node ordering
   DELI i  Change written-airfoil file delimiters

   LOAD f  Read buffer airfoil from coordinate file
   NACA i  Set NACA 4,5-digit airfoil and buffer airfoil
   INTE    Set buffer airfoil by interpolating two airfoils
   NORM    Buffer airfoil normalization toggle
   HALF    Halve the number of points in buffer airfoil
   XYCM rr Change CM reference location, currently  0.25000 0.00000

   BEND    Display structural properties of current airfoil

   PCOP    Set current-airfoil panel nodes directly from buffer airfoil points
   PANE    Set current-airfoil panel nodes ( 160 ) based on curvature
  .PPAR    Show/change paneling

  .PLOP    Plotting options

   WDEF f  Write  current-settings file
   RDEF f  Reread current-settings file
   NAME s  Specify new airfoil name
   NINC    Increment name version number

   Z       Zoom    | (available in all menus)
   U       Unzoom  | 

 XFOIL   c>  
 Labeled airfoil file.  Name:  NACA 0006                                       

 Number of input coordinate points: 201
 Counterclockwise ordering
 Max thickness =     0.060016  at x =   0.301
 Max camber    =    -0.000000  at x =   0.041

  LE  x,y  =   0.00000   0.00000  |   Chord =   1.00000
  TE  x,y  =   1.00000   0.00000  |

 Current airfoil nodes set from buffer airfoil nodes ( 201 )

 XFOIL   c>  
 Blunt trailing edge.  Gap =  0.00126

 Paneling parameters used...
   Number of panel nodes       160
   Panel bunching parameter    1.000
   TE/LE panel density ratio   0.150
   Refined-area/LE panel density ratio    0.200
   Top    side refined area x/c limits  1.000 1.000
   Bottom side refined area x/c limits  1.000 1.000

 XFOIL   c>  
.OPERi   c>  
 Polar  1 newly created for accumulation
 Airfoil archived with polar: NACA 0006                                       

Enter  polar save filename  OR  <return> for no file   s>  
 Old polar save file read in ...
  
       XFOIL                                                    Version 6.99
  
 Calculated polar for: NACA 0006                                       
  
 1 1 Reynolds number fixed          Mach number fixed         
  
 xtrf =   1.000 (top)        1.000 (bottom)  
 Mach =   0.000     Re =     0.000 e 6     Ncrit =   9.000  9.000
  
   alpha    CL        CD       CDp       CM     Top_Xtr  Bot_Xtr  Top_Itr  Bot_Itr
  ------ -------- --------- --------- -------- -------- -------- -------- --------
  -5.000  -0.5751   0.00000  -0.00087   0.0029   0.0000   0.0000   0.0000   0.0000
  -4.500  -0.5178   0.00000  -0.00083   0.0026   0.0000   0.0000   0.0000   0.0000
  -4.000  -0.4603   0.00000  -0.00080   0.0023   0.0000   0.0000   0.0000   0.0000
  -3.500  -0.4029   0.00000  -0.00077   0.0020   0.0000   0.0000   0.0000   0.0000
  -3.000  -0.3454   0.00000  -0.00074   0.0017   0.0000   0.0000   0.0000   0.0000
  -2.500  -0.2878   0.00000  -0.00072   0.0014   0.0000   0.0000   0.0000   0.0000
  -2.000  -0.2303   0.00000  -0.00070   0.0012   0.0000   0.0000   0.0000   0.0000
  -1.500  -0.1727   0.00000  -0.00069   0.0009   0.0000   0.0000   0.0000   0.0000
  -1.000  -0.1152   0.00000  -0.00068   0.0006   0.0000   0.0000   0.0000   0.0000
  -0.500  -0.0576   0.00000  -0.00067   0.0003   0.0000   0.0000   0.0000   0.0000
   0.000   0.0000   0.00000  -0.00067  -0.0000   0.0000   0.0000   0.0000   0.0000
   0.500   0.0576   0.00000  -0.00067  -0.0003   0.0000   0.0000   0.0000   0.0000
   1.000   0.1152   0.00000  -0.00068  -0.0006   0.0000   0.0000   0.0000   0.0000
   1.500   0.1727   0.00000  -0.00069  -0.0009   0.0000   0.0000   0.0000   0.0000
   2.000   0.2303   0.00000  -0.00070  -0.0012   0.0000   0.0000   0.0000   0.0000
   2.500   0.2878   0.00000  -0.00072  -0.0014   0.0000   0.0000   0.0000   0.0000
   3.000   0.3454   0.00000  -0.00074  -0.0017   0.0000   0.0000   0.0000   0.0000
   3.500   0.4029   0.00000  -0.00077  -0.0020   0.0000   0.0000   0.0000   0.0000
   4.000   0.4603   0.00000  -0.00080  -0.0023   0.0000   0.0000   0.0000   0.0000
   4.500   0.5178   0.00000  -0.00083  -0.0026   0.0000   0.0000   0.0000   0.0000
   5.000   0.5751   0.00000  -0.00087  -0.0029   0.0000   0.0000   0.0000   0.0000
   5.500   0.6325   0.00000  -0.00091  -0.0032   0.0000   0.0000   0.0000   0.0000
   6.000   0.6898   0.00000  -0.00096  -0.0035   0.0000   0.0000   0.0000   0.0000
   6.500   0.7470   0.00000  -0.00101  -0.0037   0.0000   0.0000   0.0000   0.0000
   7.000   0.8042   0.00000  -0.00106  -0.0040   0.0000   0.0000   0.0000   0.0000
   7.500   0.8614   0.00000  -0.00112  -0.0043   0.0000   0.0000   0.0000   0.0000
   8.000   0.9185   0.00000  -0.00118  -0.0046   0.0000   0.0000   0.0000   0.0000
   8.500   0.9755   0.00000  -0.00124  -0.0049   0.0000   0.0000   0.0000   0.0000
   9.000   1.0324   0.00000  -0.00131  -0.0051   0.0000   0.0000   0.0000   0.0000
   9.500   1.0892   0.00000  -0.00138  -0.0054   0.0000   0.0000   0.0000   0.0000
  10.000   1.1460   0.00000  -0.00145  -0.0057   0.0000   0.0000   0.0000   0.0000
  10.500   1.2027   0.00000  -0.00153  -0.0060   0.0000   0.0000   0.0000   0.0000
  11.000   1.2593   0.00000  -0.00161  -0.0062   0.0000   0.0000   0.0000   0.0000
  11.500   1.3158   0.00000  -0.00170  -0.0065   0.0000   0.0000   0.0000   0.0000
  12.000   1.3722   0.00000  -0.00178  -0.0068   0.0000   0.0000   0.0000   0.0000
  12.500   1.4285   0.00000  -0.00187  -0.0070   0.0000   0.0000   0.0000   0.0000
  13.000   1.4847   0.00000  -0.00197  -0.0073   0.0000   0.0000   0.0000   0.0000
  13.500   1.5408   0.00000  -0.00207  -0.0075   0.0000   0.0000   0.0000   0.0000
  14.000   1.5968   0.00000  -0.00217  -0.0078   0.0000   0.0000   0.0000   0.0000
  14.500   1.6526   0.00000  -0.00227  -0.0081   0.0000   0.0000   0.0000   0.0000
  15.000   1.7084   0.00000  -0.00237  -0.0083   0.0000   0.0000   0.0000   0.0000

 Old polar save file available for appending

Enter  polar dump filename  OR  <return> for no file   s>  
 Polar dump file will NOT be written

 Polar accumulation enabled

.OPERia   c>   Calculating unit vorticity distributions ...

 Point added to stored polar  1
 Point written to save file  CLi_NACA_0006.dat                               
 Dump file unspecified or not available

 Point added to stored polar  1
 Point written to save file  CLi_NACA_0006.dat                               
 Dump file unspecified or not available

 Point added to stored polar  1
 Point written to save file  CLi_NACA_0006.dat                               
 Dump file unspecified or not available

 Point added to stored polar  1
 Point written to save file  CLi_NACA_0006.dat                               
 Dump file unspecified or not available

 Point added to stored polar  1
 Point written to save file  CLi_NACA_0006.dat                               
 Dump file unspecified or not available

 Point added to stored polar  1
 Point written to save file  CLi_NACA_0006.dat                               
 Dump file unspecified or not available

 Point added to stored polar  1
 Point written to save file  CLi_NACA_0006.dat                               
 Dump file unspecified or not available

 Point added to stored polar  1
 Point written to save file  CLi_NACA_0006.dat                               
 Dump file unspecified or not available

 Point added to stored polar  1
 Point written to save file  CLi_NACA_0006.dat                               
 Dump file unspecified or not available

 Point added to stored polar  1
 Point written to save file  CLi_NACA_0006.dat                               
 Dump file unspecified or not available

 Point added to stored polar  1
 Point written to save file  CLi_NACA_0006.dat                               
 Dump file unspecified or not available

 Point added to stored polar  1
 Point written to save file  CLi_NACA_0006.dat                               
 Dump file unspecified or not available

 Point added to stored polar  1
 Point written to save file  CLi_NACA_0006.dat                               
 Dump file unspecified or not available

 Point added to stored polar  1
 Point written to save file  CLi_NACA_0006.dat                               
 Dump file unspecified or not available

 Point added to stored polar  1
 Point written to save file  CLi_NACA_0006.dat                               
 Dump file unspecified or not available

 Point added to stored polar  1
 Point written to save file  CLi_NACA_0006.dat                               
 Dump file unspecified or not available

 Point added to stored polar  1
 Point written to save file  CLi_NACA_0006.dat                               
 Dump file unspecified or not available

 Point added to stored polar  1
 Point written to save file  CLi_NACA_0006.dat                               
 Dump file unspecified or not available

 Point added to stored polar  1
 Point written to save file  CLi_NACA_0006.dat                               
 Dump file unspecified or not available

 Point added to stored polar  1
 Point written to save file  CLi_NACA_0006.dat                               
 Dump file unspecified or not available

 Point added to stored polar  1
 Point written to save file  CLi_NACA_0006.dat                               
 Dump file unspecified or not available

 Point added to stored polar  1
 Point written to save file  CLi_NACA_0006.dat                               
 Dump file unspecified or not available

 Point added to stored polar  1
 Point written to save file  CLi_NACA_0006.dat                               
 Dump file unspecified or not available

 Point added to stored polar  1
 Point written to save file  CLi_NACA_0006.dat                               
 Dump file unspecified or not available

 Point added to stored polar  1
 Point written to save file  CLi_NACA_0006.dat                               
 Dump file unspecified or not available

 Point added to stored polar  1
 Point written to save file  CLi_NACA_0006.dat                               
 Dump file unspecified or not available

 Point added to stored polar  1
 Point written to save file  CLi_NACA_0006.dat                               
 Dump file unspecified or not available

 Point added to stored polar  1
 Point written to save file  CLi_NACA_0006.dat                               
 Dump file unspecified or not available

 Point added to stored polar  1
 Point written to save file  CLi_NACA_0006.dat                               
 Dump file unspecified or not available

 Point added to stored polar  1
 Point written to save file  CLi_NACA_0006.dat                               
 Dump file unspecified or not available

 Point added to stored polar  1
 Point written to save file  CLi_NACA_0006.dat                               
 Dump file unspecified or not available

 Point added to stored polar  1
 Point written to save file  CLi_NACA_0006.dat                               
 Dump file unspecified or not available

 Point added to stored polar  1
 Point written to save file  CLi_NACA_0006.dat                               
 Dump file unspecified or not available

 Point added to stored polar  1
 Point written to save file  CLi_NACA_0006.dat                               
 Dump file unspecified or not available

 Point added to stored polar  1
 Point written to save file  CLi_NACA_0006.dat                               
 Dump file unspecified or not available

 Point added to stored polar  1
 Point written to save file  CLi_NACA_0006.dat                               
 Dump file unspecified or not available

 Point added to stored polar  1
 Point written to save file  CLi_NACA_0006.dat                               
 Dump file unspecified or not available

 Point added to stored polar  1
 Point written to save file  CLi_NACA_0006.dat                               
 Dump file unspecified or not available

 Point added to stored polar  1
 Point written to save file  CLi_NACA_0006.dat                               
 Dump file unspecified or not available

 Point added to stored polar  1
 Point written to save file  CLi_NACA_0006.dat                               
 Dump file unspecified or not available

 Point added to stored polar  1
 Point written to save file  CLi_NACA_0006.dat                               
 Dump file unspecified or not available

.OPERia   c>  
 Polar accumulation disabled

.OPERi   c>  
 XFOIL   c>  
 ===================================================
  XFOIL Version 6.99
  Copyright (C) 2000   Mark Drela, Harold Youngren

  This software comes with ABSOLUTELY NO WARRANTY,
    subject to the GNU General Public License.

  Caveat computor
 ===================================================

 File  xfoil.def  not found

   QUIT    Exit program

  .OPER    Direct operating point(s)
  .MDES    Complex mapping design routine
  .QDES    Surface speed design routine
  .GDES    Geometry design routine

   SAVE f  Write airfoil to labeled coordinate file
   PSAV f  Write airfoil to plain coordinate file
   ISAV f  Write airfoil to ISES coordinate file
   MSAV f  Write airfoil to MSES coordinate file
   REVE    Reverse written-airfoil node ordering
   DELI i  Change written-airfoil file delimiters

   LOAD f  Read buffer airfoil from coordinate file
   NACA i  Set NACA 4,5-digit airfoil and buffer airfoil
   INTE    Set buffer airfoil by interpolating two airfoils
   NORM    Buffer airfoil normalization toggle
   HALF    Halve the number of points in buffer airfoil
   XYCM rr Change CM reference location, currently  0.25000 0.00000

   BEND    Display structural properties of current airfoil

   PCOP    Set current-airfoil panel nodes directly from buffer airfoil points
   PANE    Set current-airfoil panel nodes ( 160 ) based on curvature
  .PPAR    Show/change paneling

  .PLOP    Plotting options

   WDEF f  Write  current-settings file
   RDEF f  Reread current-settings file
   NAME s  Specify new airfoil name
   NINC    Increment name version number

   Z       Zoom    | (available in all menus)
   U       Unzoom  | 

 XFOIL   c>  
 Labeled airfoil file.  Name:  NACA 0012                                       

 Number of input coordinate points: 201
 Counterclockwise ordering
 Max thickness =     0.120034  at x =   0.301
 Max camber    =     0.000000  at x =   0.020

  LE  x,y  =   0.00000   0.00000  |   Chord =   1.00000
  TE  x,y  =   1.00000   0.00000  |

 Current airfoil nodes set from buffer airfoil nodes ( 201 )

 XFOIL   c>  
 Blunt trailing edge.  Gap =  0.00252

 Paneling parameters used...
   Number of panel nodes       160
   Panel bunching parameter    1.000
   TE/LE panel density ratio   0.150
   Refined-area/LE panel density ratio    0.200
   Top    side refined area x/c limits  1.000 1.000
   Bottom side refined area x/c limits  1.000 1.000

 XFOIL   c>  
.OPERi   c>  
 Polar  1 newly created for accumulation
 Airfoil archived with polar: NACA 0012                                       

Enter  polar save filename  OR  <return> for no file   s>  
 Old polar save file read in ...
  
       XFOIL                                                    Version 6.99
  
 Calculated polar for: NACA 0012                                       
  
 1 1 Reynolds number fixed          Mach number fixed         
  
 xtrf =   1.000 (top)        1.000 (bottom)  
 Mach =   0.000     Re =     0.000 e 6     Ncrit =   9.000  9.000
  
   alpha    CL        CD       CDp       CM     Top_Xtr  Bot_Xtr  Top_Itr  Bot_Itr
  ------ -------- --------- --------- -------- -------- -------- -------- --------
  -5.000  -0.6033   0.00000  -0.00110   0.0070   0.0000   0.0000   0.0000   0.0000
  -4.500  -0.5431   0.00000  -0.00109   0.0063   0.0000   0.0000   0.0000   0.0000
  -4.000  -0.4829   0.00000  -0.00109   0.0056   0.0000   0.0000   0.0000   0.0000
  -3.500  -0.4226   0.00000  -0.00108   0.0049   0.0000   0.0000   0.0000   0.0000
  -3.000  -0.3623   0.00000  -0.00108   0.0042   0.0000   0.0000   0.0000   0.0000
  -2.500  -0.3019   0.00000  -0.00107   0.0035   0.0000   0.0000   0.0000   0.0000
  -2.000  -0.2416   0.00000  -0.00107   0.0028   0.0000   0.0000   0.0000   0.0000
  -1.500  -0.1812   0.00000  -0.00107   0.0021   0.0000   0.0000   0.0000   0.0000
  -1.000  -0.1208   0.00000  -0.00107   0.0014   0.0000   0.0000   0.0000   0.0000
  -0.500  -0.0604   0.00000  -0.00106   0.0007   0.0000   0.0000   0.0000   0.0000
   0.000  -0.0000   0.00000  -0.00106   0.0000   0.0000   0.0000   0.0000   0.0000
   0.500   0.0604   0.00000  -0.00106  -0.0007   0.0000   0.0000   0.0000   0.0000
   1.000   0.1208   0.00000  -0.00107  -0.0014   0.0000   0.0000   0.0000   0.0000
   1.500   0.1812   0.00000  -0.00107  -0.0021   0.0000   0.0000   0.0000   0.0000
   2.000   0.2416   0.00000  -0.00107  -0.0028   0.0000   0.0000   0.0000   0.0000
   2.500   0.3019   0.00000  -0.00107  -0.0035   0.0000   0.0000   0.0000   0.0000
   3.000   0.3623   0.00000  -0.00108  -0.0042   0.0000   0.0000   0.0000   0.0000
   3.500   0.4226   0.00000  -0.00108  -0.0049   0.0000   0.0000   0.0000   0.0000
   4.000   0.4829   0.00000  -0.00109  -0.0056   0.0000   0.0000   0.0000   0.0000
   4.500   0.5431   0.00000  -0.00109  -0.0063   0.0000   0.0000   0.0000   0.0000
   5.000   0.6033   0.00000  -0.00110  -0.0070   0.0000   0.0000   0.0000   0.0000
   5.500   0.6634   0.00000  -0.00110  -0.0076   0.0000   0.0000   0.0000   0.0000
   6.000   0.7235   0.00000  -0.00111  -0.0083   0.0000   0.0000   0.0000   0.0000
   6.500   0.7836   0.00000  -0.00112  -0.0090   0.0000   0.0000   0.0000   0.0000
   7.000   0.8436   0.00000  -0.00113  -0.0097   0.0000   0.0000   0.0000   0.0000
   7.500   0.9035   0.00000  -0.00114  -0.0104   0.0000   0.0000   0.0000   0.0000
   8.000   0.9634   0.00000  -0.00115  -0.0110   0.0000   0.0000   0.0000   0.0000
   8.500   1.0231   0.00000  -0.00116  -0.0117   0.0000   0.0000   0.0000   0.0000
   9.000   1.0828   0.00000  -0.00117  -0.0124   0.0000   0.0000   0.0000   0.0000
   9.500   1.1425   0.00000  -0.00118  -0.0130   0.0000   0.0000   0.0000   0.0000
  10.000   1.2020   0.00000  -0.00120  -0.0137   0.0000   0.0000   0.0000   0.0000
  10.500   1.2615   0.00000  -0.00121  -0.0144   0.0000   0.0000   0.0000   0.0000
  11.000   1.3208   0.00000  -0.00122  -0.0150   0.0000   0.0000   0.0000   0.0000
  11.500   1.3801   0.00000  -0.00124  -0.0157   0.0000   0.0000   0.0000   0.0000
  12.000   1.4392   0.00000  -0.00125  -0.0163   0.0000   0.0000   0.0000   0.0000
  12.500   1.4982   0.00000  -0.00127  -0.0169   0.0000   0.0000   0.0000   0.0000
  13.000   1.5572   0.00000  -0.00128  -0.0176   0.0000   0.0000   0.0000   0.0000
  13.500   1.6160   0.00000  -0.00130  -0.0182   0.0000   0.0000   0.0000   0.0000
  14.000   1.6746   0.00000  -0.00131  -0.0188   0.0000   0.0000   0.0000   0.0000
  14.500   1.7332   0.00000  -0.00133  -0.0194   0.0000   0.0000   0.0000   0.0000
  15.000   1.7916   0.00000  -0.00135  -0.0200   0.0000   0.0000   0.0000   0.0000

 Old polar save file available for appending

Enter  polar dump filename  OR  <return> for no file   s>  
 Polar dump file will NOT be written

 Polar accumulation enabled

.OPERia   c>   Calculating unit vorticity distributions ...

 Point added to stored polar  1
 Point written to save file  CLi_NACA_0012.dat                               
 Dump file unspecified or not available

 Point added to stored polar  1
 Point written to save file  CLi_NACA_0012.dat                               
 Dump file unspecified or not available

 Point added to stored polar  1
 Point written to save file  CLi_NACA_0012.dat                               
 Dump file unspecified or not available

 Point added to stored polar  1
 Point written to save file  CLi_NACA_0012.dat                               
 Dump file unspecified or not available

 Point added to stored polar  1
 Point written to save file  CLi_NACA_0012.dat                               
 Dump file unspecified or not available

 Point added to stored polar  1
 Point written to save file  CLi_NACA_0012.dat                               
 Dump file unspecified or not available

 Point added to stored polar  1
 Point written to save file  CLi_NACA_0012.dat                               
 Dump file unspecified or not available

 Point added to stored polar  1
 Point written to save file  CLi_NACA_0012.dat                               
 Dump file unspecified or not available

 Point added to stored polar  1
 Point written to save file  CLi_NACA_0012.dat                               
 Dump file unspecified or not available

 Point added to stored polar  1
 Point written to save file  CLi_NACA_0012.dat                               
 Dump file unspecified or not available

 Point added to stored polar  1
 Point written to save file  CLi_NACA_0012.dat                               
 Dump file unspecified or not available

 Point added to stored polar  1
 Point written to save file  CLi_NACA_0012.dat                               
 Dump file unspecified or not available

 Point added to stored polar  1
 Point written to save file  CLi_NACA_0012.dat                               
 Dump file unspecified or not available

 Point added to stored polar  1
 Point written to save file  CLi_NACA_0012.dat                               
 Dump file unspecified or not available

 Point added to stored polar  1
 Point written to save file  CLi_NACA_0012.dat                               
 Dump file unspecified or not available

 Point added to stored polar  1
 Point written to save file  CLi_NACA_0012.dat                               
 Dump file unspecified or not available

 Point added to stored polar  1
 Point written to save file  CLi_NACA_0012.dat                               
 Dump file unspecified or not available

 Point added to stored polar  1
 Point written to save file  CLi_NACA_0012.dat                               
 Dump file unspecified or not available

 Point added to stored polar  1
 Point written to save file  CLi_NACA_0012.dat                               
 Dump file unspecified or not available

 Point added to stored polar  1
 Point written to save file  CLi_NACA_0012.dat                               
 Dump file unspecified or not available

 Point added to stored polar  1
 Point written to save file  CLi_NACA_0012.dat                               
 Dump file unspecified or not available

 Point added to stored polar  1
 Point written to save file  CLi_NACA_0012.dat                               
 Dump file unspecified or not available

 Point added to stored polar  1
 Point written to save file  CLi_NACA_0012.dat                               
 Dump file unspecified or not available

 Point added to stored polar  1
 Point written to save file  CLi_NACA_0012.dat                               
 Dump file unspecified or not available

 Point added to stored polar  1
 Point written to save file  CLi_NACA_0012.dat                               
 Dump file unspecified or not available

 Point added to stored polar  1
 Point written to save file  CLi_NACA_0012.dat                               
 Dump file unspecified or not available

 Point added to stored polar  1
 Point written to save file  CLi_NACA_0012.dat                               
 Dump file unspecified or not available

 Point added to stored polar  1
 Point written to save file  CLi_NACA_0012.dat                               
 Dump file unspecified or not available

 Point added to stored polar  1
 Point written to save file  CLi_NACA_0012.dat                               
 Dump file unspecified or not available

 Point added to stored polar  1
 Point written to save file  CLi_NACA_0012.dat                               
 Dump file unspecified or not available

 Point added to stored polar  1
 Point written to save file  CLi_NACA_0012.dat                               
 Dump file unspecified or not available

 Point added to stored polar  1
 Point written to save file  CLi_NACA_0012.dat                               
 Dump file unspecified or not available

 Point added to stored polar  1
 Point written to save file  CLi_NACA_0012.dat                               
 Dump file unspecified or not available

 Point added to stored polar  1
 Point written to save file  CLi_NACA_0012.dat                               
 Dump file unspecified or not available

 Point added to stored polar  1
 Point written to save file  CLi_NACA_0012.dat                               
 Dump file unspecified or not available

 Point added to stored polar  1
 Point written to save file  CLi_NACA_0012.dat                               
 Dump file unspecified or not available

 Point added to stored polar  1
 Point written to save file  CLi_NACA_0012.dat                               
 Dump file unspecified or not available

 Point added to stored polar  1
 Point written to save file  CLi_NACA_0012.dat                               
 Dump file unspecified or not available

 Point added to stored polar  1
 Point written to save file  CLi_NACA_0012.dat                               
 Dump file unspecified or not available

 Point added to stored polar  1
 Point written to save file  CLi_NACA_0012.dat                               
 Dump file unspecified or not available

 Point added to stored polar  1
 Point written to save file  CLi_NACA_0012.dat                               
 Dump file unspecified or not available

.OPERia   c>  
 Polar accumulation disabled

.OPERi   c>  
 XFOIL   c>  
 ===================================================
  XFOIL Version 6.99
  Copyright (C) 2000   Mark Drela, Harold Youngren

  This software comes with ABSOLUTELY NO WARRANTY,
    subject to the GNU General Public License.

  Caveat computor
 ===================================================

 File  xfoil.def  not found

   QUIT    Exit program

  .OPER    Direct operating point(s)
  .MDES    Complex mapping design routine
  .QDES    Surface speed design routine
  .GDES    Geometry design routine

   SAVE f  Write airfoil to labeled coordinate file
   PSAV f  Write airfoil to plain coordinate file
   ISAV f  Write airfoil to ISES coordinate file
   MSAV f  Write airfoil to MSES coordinate file
   REVE    Reverse written-airfoil node ordering
   DELI i  Change written-airfoil file delimiters

   LOAD f  Read buffer airfoil from coordinate file
   NACA i  Set NACA 4,5-digit airfoil and buffer airfoil
   INTE    Set buffer airfoil by interpolating two airfoils
   NORM    Buffer airfoil normalization toggle
   HALF    Halve the number of points in buffer airfoil
   XYCM rr Change CM reference location, currently  0.25000 0.00000

   BEND    Display structural properties of current airfoil

   PCOP    Set current-airfoil panel nodes directly from buffer airfoil points
   PANE    Set current-airfoil panel nodes ( 160 ) based on curvature
  .PPAR    Show/change paneling

  .PLOP    Plotting options

   WDEF f  Write  current-settings file
   RDEF f  Reread current-settings file
   NAME s  Specify new airfoil name
   NINC    Increment name version number

   Z       Zoom    | (available in all menus)
   U       Unzoom  | 

 XFOIL   c>  
 Labeled airfoil file.  Name:  NACA 0016                                       

 Number of input coordinate points: 201
 Counterclockwise ordering
 Max thickness =     0.160044  at x =   0.301
 Max camber    =     0.000000  at x =   0.048

  LE  x,y  =   0.00000   0.00000  |   Chord =   1.00000
  TE  x,y  =   1.00000   0.00000  |

 Current airfoil nodes set from buffer airfoil nodes ( 201 )

 XFOIL   c>  
 Blunt trailing edge.  Gap =  0.00336

 Paneling parameters used...
   Number of panel nodes       160
   Panel bunching parameter    1.000
   TE/LE panel density ratio   0.150
   Refined-area/LE panel density ratio    0.200
   Top    side refined area x/c limits  1.000 1.000
   Bottom side refined area x/c limits  1.000 1.000

 XFOIL   c>  
.OPERi   c>  
 Polar  1 newly created for accumulation
 Airfoil archived with polar: NACA 0016                                       

Enter  polar save filename  OR  <return> for no file   s>  
 Old polar save file read in ...
  
       XFOIL                                                    Version 6.99
  
 Calculated polar for: NACA 0016                                       
  
 1 1 Reynolds number fixed          Mach number fixed         
  
 xtrf =   1.000 (top)        1.000 (bottom)  
 Mach =   0.000     Re =     0.000 e 6     Ncrit =   9.000  9.000
  
   alpha    CL        CD       CDp       CM     Top_Xtr  Bot_Xtr  Top_Itr  Bot_Itr
  ------ -------- --------- --------- -------- -------- -------- -------- --------
  -5.000  -0.6221   0.00000  -0.00152   0.0103   0.0000   0.0000   0.0000   0.0000
  -4.500  -0.5600   0.00000  -0.00151   0.0092   0.0000   0.0000   0.0000   0.0000
  -4.000  -0.4979   0.00000  -0.00151   0.0082   0.0000   0.0000   0.0000   0.0000
  -3.500  -0.4358   0.00000  -0.00151   0.0072   0.0000   0.0000   0.0000   0.0000
  -3.000  -0.3736   0.00000  -0.00150   0.0062   0.0000   0.0000   0.0000   0.0000
  -2.500  -0.3114   0.00000  -0.00150   0.0051   0.0000   0.0000   0.0000   0.0000
  -2.000  -0.2491   0.00000  -0.00150   0.0041   0.0000   0.0000   0.0000   0.0000
  -1.500  -0.1869   0.00000  -0.00150   0.0031   0.0000   0.0000   0.0000   0.0000
  -1.000  -0.1246   0.00000  -0.00150   0.0021   0.0000   0.0000   0.0000   0.0000
  -0.500  -0.0623   0.00000  -0.00149   0.0010   0.0000   0.0000   0.0000   0.0000
   0.000   0.0000   0.00000  -0.00149  -0.0000   0.0000   0.0000   0.0000   0.0000
   0.500   0.0623   0.00000  -0.00149  -0.0010   0.0000   0.0000   0.0000   0.0000
   1.000   0.1246   0.00000  -0.00150  -0.0021   0.0000   0.0000   0.0000   0.0000
   1.500   0.1869   0.00000  -0.00150  -0.0031   0.0000   0.0000   0.0000   0.0000
   2.000   0.2491   0.00000  -0.00150  -0.0041   0.0000   0.0000   0.0000   0.0000
   2.500   0.3114   0.00000  -0.00150  -0.0051   0.0000   0.0000   0.0000   0.0000
   3.000   0.3736   0.00000  -0.00150  -0.0062   0.0000   0.0000   0.0000   0.0000
   3.500   0.4358   0.00000  -0.00151  -0.0072   0.0000   0.0000   0.0000   0.0000
   4.000   0.4979   0.00000  -0.00151  -0.0082   0.0000   0.0000   0.0000   0.0000
   4.500   0.5600   0.00000  -0.00151  -0.0092   0.0000   0.0000   0.0000   0.0000
   5.000   0.6221   0.00000  -0.00152  -0.0103   0.0000   0.0000   0.0000   0.0000
   5.500   0.6841   0.00000  -0.00152  -0.0113   0.0000   0.0000   0.0000   0.0000
   6.000   0.7461   0.00000  -0.00153  -0.0123   0.0000   0.0000   0.0000   0.0000
   6.500   0.8080   0.00000  -0.00153  -0.0133   0.0000   0.0000   0.0000   0.0000
   7.000   0.8699   0.00000  -0.00154  -0.0143   0.0000   0.0000   0.0000   0.0000
   7.500   0.9317   0.00000  -0.00155  -0.0153   0.0000   0.0000   0.0000   0.0000
   8.000   0.9934   0.00000  -0.00155  -0.0163   0.0000   0.0000   0.0000   0.0000
   8.500   1.0551   0.00000  -0.00156  -0.0173   0.0000   0.0000   0.0000   0.0000
   9.000   1.1166   0.00000  -0.00157  -0.0182   0.0000   0.0000   0.0000   0.0000
   9.500   1.1781   0.00000  -0.00158  -0.0192   0.0000   0.0000   0.0000   0.0000
  10.000   1.2395   0.00000  -0.00159  -0.0202   0.0000   0.0000   0.0000   0.0000
  10.500   1.3008   0.00000  -0.00159  -0.0212   0.0000   0.0000   0.0000   0.0000
  11.000   1.3620   0.00000  -0.00160  -0.0221   0.0000   0.0000   0.0000   0.0000
  11.500   1.4231   0.00000  -0.00161  -0.0231   0.0000   0.0000   0.0000   0.0000
  12.000   1.4841   0.00000  -0.00162  -0.0240   0.0000   0.0000   0.0000   0.0000
  12.500   1.5450   0.00000  -0.00163  -0.0250   0.0000   0.0000   0.0000   0.0000
  13.000   1.6057   0.00000  -0.00164  -0.0259   0.0000   0.0000   0.0000   0.0000
  13.500   1.6664   0.00000  -0.00166  -0.0268   0.0000   0.0000   0.0000   0.0000
  14.000   1.7269   0.00000  -0.00167  -0.0277   0.0000   0.0000   0.0000   0.0000
  14.500   1.7873   0.00000  -0.00168  -0.0286   0.0000   0.0000   0.0000   0.0000
  15.000   1.8475   0.00000  -0.00169  -0.0295   0.0000   0.0000   0.0000   0.0000
  -5.000  -0.6221   0.00000  -0.00152   0.0103   0.0000   0.0000   0.0000   0.0000
  -4.500  -0.5600   0.00000  -0.00151   0.0092   0.0000   0.0000   0.0000   0.0000
  -4.000  -0.4979   0.00000  -0.00151   0.0082   0.0000   0.0000   0.0000   0.0000
  -3.500  -0.4358   0.00000  -0.00151   0.0072   0.0000   0.0000   0.0000   0.0000
  -3.000  -0.3736   0.00000  -0.00150   0.0062   0.0000   0.0000   0.0000   0.0000
  -2.500  -0.3114   0.00000  -0.00150   0.0051   0.0000   0.0000   0.0000   0.0000
  -2.000  -0.2491   0.00000  -0.00150   0.0041   0.0000   0.0000   0.0000   0.0000
  -1.500  -0.1869   0.00000  -0.00150   0.0031   0.0000   0.0000   0.0000   0.0000
  -1.000  -0.1246   0.00000  -0.00150   0.0021   0.0000   0.0000   0.0000   0.0000
  -0.500  -0.0623   0.00000  -0.00149   0.0010   0.0000   0.0000   0.0000   0.0000
   0.000   0.0000   0.00000  -0.00149  -0.0000   0.0000   0.0000   0.0000   0.0000
   0.500   0.0623   0.00000  -0.00149  -0.0010   0.0000   0.0000   0.0000   0.0000
   1.000   0.1246   0.00000  -0.00150  -0.0021   0.0000   0.0000   0.0000   0.0000
   1.500   0.1869   0.00000  -0.00150  -0.0031   0.0000   0.0000   0.0000   0.0000
   2.000   0.2491   0.00000  -0.00150  -0.0041   0.0000   0.0000   0.0000   0.0000
   2.500   0.3114   0.00000  -0.00150  -0.0051   0.0000   0.0000   0.0000   0.0000
   3.000   0.3736   0.00000  -0.00150  -0.0062   0.0000   0.0000   0.0000   0.0000
   3.500   0.4358   0.00000  -0.00151  -0.0072   0.0000   0.0000   0.0000   0.0000
   4.000   0.4979   0.00000  -0.00151  -0.0082   0.0000   0.0000   0.0000   0.0000
   4.500   0.5600   0.00000  -0.00151  -0.0092   0.0000   0.0000   0.0000   0.0000
   5.000   0.6221   0.00000  -0.00152  -0.0103   0.0000   0.0000   0.0000   0.0000
   5.500   0.6841   0.00000  -0.00152  -0.0113   0.0000   0.0000   0.0000   0.0000
   6.000   0.7461   0.00000  -0.00153  -0.0123   0.0000   0.0000   0.0000   0.0000
   6.500   0.8080   0.00000  -0.00153  -0.0133   0.0000   0.0000   0.0000   0.0000
   7.000   0.8699   0.00000  -0.00154  -0.0143   0.0000   0.0000   0.0000   0.0000
   7.500   0.9317   0.00000  -0.00155  -0.0153   0.0000   0.0000   0.0000   0.0000
   8.000   0.9934   0.00000  -0.00155  -0.0163   0.0000   0.0000   0.0000   0.0000
   8.500   1.0551   0.00000  -0.00156  -0.0173   0.0000   0.0000   0.0000   0.0000
   9.000   1.1166   0.00000  -0.00157  -0.0182   0.0000   0.0000   0.0000   0.0000
   9.500   1.1781   0.00000  -0.00158  -0.0192   0.0000   0.0000   0.0000   0.0000
  10.000   1.2395   0.00000  -0.00159  -0.0202   0.0000   0.0000   0.0000   0.0000
  10.500   1.3008   0.00000  -0.00159  -0.0212   0.0000   0.0000   0.0000   0.0000
  11.000   1.3620   0.00000  -0.00160  -0.0221   0.0000   0.0000   0.0000   0.0000
  11.500   1.4231   0.00000  -0.00161  -0.0231   0.0000   0.0000   0.0000   0.0000
  12.000   1.4841   0.00000  -0.00162  -0.0240   0.0000   0.0000   0.0000   0.0000
  12.500   1.5450   0.00000  -0.00163  -0.0250   0.0000   0.0000   0.0000   0.0000
  13.000   1.6057   0.00000  -0.00164  -0.0259   0.0000   0.0000   0.0000   0.0000
  13.500   1.6664   0.00000  -0.00166  -0.0268   0.0000   0.0000   0.0000   0.0000
  14.000   1.7269   0.00000  -0.00167  -0.0277   0.0000   0.0000   0.0000   0.0000
  14.500   1.7873   0.00000  -0.00168  -0.0286   0.0000   0.0000   0.0000   0.0000
  15.000   1.8475   0.00000  -0.00169  -0.0295   0.0000   0.0000   0.0000   0.0000

 Old polar save file available for appending

Enter  polar dump filename  OR  <return> for no file   s>  
 Polar dump file will NOT be written

 Polar accumulation enabled

.OPERia   c>   Calculating unit vorticity distributions ...

 Point added to stored polar  1
 Point written to save file  CLi_NACA_0016.dat                               
 Dump file unspecified or not available

 Point added to stored polar  1
 Point written to save file  CLi_NACA_0016.dat                               
 Dump file unspecified or not available

 Point added to stored polar  1
 Point written to save file  CLi_NACA_0016.dat                               
 Dump file unspecified or not available

 Point added to stored polar  1
 Point written to save file  CLi_NACA_0016.dat                               
 Dump file unspecified or not available

 Point added to stored polar  1
 Point written to save file  CLi_NACA_0016.dat                               
 Dump file unspecified or not available

 Point added to stored polar  1
 Point written to save file  CLi_NACA_0016.dat                               
 Dump file unspecified or not available

 Point added to stored polar  1
 Point written to save file  CLi_NACA_0016.dat                               
 Dump file unspecified or not available

 Point added to stored polar  1
 Point written to save file  CLi_NACA_0016.dat                               
 Dump file unspecified or not available

 Point added to stored polar  1
 Point written to save file  CLi_NACA_0016.dat                               
 Dump file unspecified or not available

 Point added to stored polar  1
 Point written to save file  CLi_NACA_0016.dat                               
 Dump file unspecified or not available

 Point added to stored polar  1
 Point written to save file  CLi_NACA_0016.dat                               
 Dump file unspecified or not available

 Point added to stored polar  1
 Point written to save file  CLi_NACA_0016.dat                               
 Dump file unspecified or not available

 Point added to stored polar  1
 Point written to save file  CLi_NACA_0016.dat                               
 Dump file unspecified or not available

 Point added to stored polar  1
 Point written to save file  CLi_NACA_0016.dat                               
 Dump file unspecified or not available

 Point added to stored polar  1
 Point written to save file  CLi_NACA_0016.dat                               
 Dump file unspecified or not available

 Point added to stored polar  1
 Point written to save file  CLi_NACA_0016.dat                               
 Dump file unspecified or not available

 Point added to stored polar  1
 Point written to save file  CLi_NACA_0016.dat                               
 Dump file unspecified or not available

 Point added to stored polar  1
 Point written to save file  CLi_NACA_0016.dat                               
 Dump file unspecified or not available

 Point added to stored polar  1
 Point written to save file  CLi_NACA_0016.dat                               
 Dump file unspecified or not available

 Point added to stored polar  1
 Point written to save file  CLi_NACA_0016.dat                               
 Dump file unspecified or not available

 Point added to stored polar  1
 Point written to save file  CLi_NACA_0016.dat                               
 Dump file unspecified or not available

 Point added to stored polar  1
 Point written to save file  CLi_NACA_0016.dat                               
 Dump file unspecified or not available

 Point added to stored polar  1
 Point written to save file  CLi_NACA_0016.dat                               
 Dump file unspecified or not available

 Point added to stored polar  1
 Point written to save file  CLi_NACA_0016.dat                               
 Dump file unspecified or not available

 Point added to stored polar  1
 Point written to save file  CLi_NACA_0016.dat                               
 Dump file unspecified or not available

 Point added to stored polar  1
 Point written to save file  CLi_NACA_0016.dat                               
 Dump file unspecified or not available

 Point added to stored polar  1
 Point written to save file  CLi_NACA_0016.dat                               
 Dump file unspecified or not available

 Point added to stored polar  1
 Point written to save file  CLi_NACA_0016.dat                               
 Dump file unspecified or not available

 Point added to stored polar  1
 Point written to save file  CLi_NACA_0016.dat                               
 Dump file unspecified or not available

 Point added to stored polar  1
 Point written to save file  CLi_NACA_0016.dat                               
 Dump file unspecified or not available

 Point added to stored polar  1
 Point written to save file  CLi_NACA_0016.dat                               
 Dump file unspecified or not available

 Point added to stored polar  1
 Point written to save file  CLi_NACA_0016.dat                               
 Dump file unspecified or not available

 Point added to stored polar  1
 Point written to save file  CLi_NACA_0016.dat                               
 Dump file unspecified or not available

 Point added to stored polar  1
 Point written to save file  CLi_NACA_0016.dat                               
 Dump file unspecified or not available

 Point added to stored polar  1
 Point written to save file  CLi_NACA_0016.dat                               
 Dump file unspecified or not available

 Point added to stored polar  1
 Point written to save file  CLi_NACA_0016.dat                               
 Dump file unspecified or not available

 Point added to stored polar  1
 Point written to save file  CLi_NACA_0016.dat                               
 Dump file unspecified or not available

 Point added to stored polar  1
 Point written to save file  CLi_NACA_0016.dat                               
 Dump file unspecified or not available

 Point added to stored polar  1
 Point written to save file  CLi_NACA_0016.dat                               
 Dump file unspecified or not available

 Point added to stored polar  1
 Point written to save file  CLi_NACA_0016.dat                               
 Dump file unspecified or not available

 Point added to stored polar  1
 Point written to save file  CLi_NACA_0016.dat                               
 Dump file unspecified or not available

.OPERia   c>  
 Polar accumulation disabled

.OPERi   c>  
 XFOIL   c>  
 ===================================================
  XFOIL Version 6.99
  Copyright (C) 2000   Mark Drela, Harold Youngren

  This software comes with ABSOLUTELY NO WARRANTY,
    subject to the GNU General Public License.

  Caveat computor
 ===================================================

 File  xfoil.def  not found

   QUIT    Exit program

  .OPER    Direct operating point(s)
  .MDES    Complex mapping design routine
  .QDES    Surface speed design routine
  .GDES    Geometry design routine

   SAVE f  Write airfoil to labeled coordinate file
   PSAV f  Write airfoil to plain coordinate file
   ISAV f  Write airfoil to ISES coordinate file
   MSAV f  Write airfoil to MSES coordinate file
   REVE    Reverse written-airfoil node ordering
   DELI i  Change written-airfoil file delimiters

   LOAD f  Read buffer airfoil from coordinate file
   NACA i  Set NACA 4,5-digit airfoil and buffer airfoil
   INTE    Set buffer airfoil by interpolating two airfoils
   NORM    Buffer airfoil normalization toggle
   HALF    Halve the number of points in buffer airfoil
   XYCM rr Change CM reference location, currently  0.25000 0.00000

   BEND    Display structural properties of current airfoil

   PCOP    Set current-airfoil panel nodes directly from buffer airfoil points
   PANE    Set current-airfoil panel nodes ( 160 ) based on curvature
  .PPAR    Show/change paneling

  .PLOP    Plotting options

   WDEF f  Write  current-settings file
   RDEF f  Reread current-settings file
   NAME s  Specify new airfoil name
   NINC    Increment name version number

   Z       Zoom    | (available in all menus)
   U       Unzoom  | 

 XFOIL   c>  
 Labeled airfoil file.  Name:  NACA 1412                                       

 Number of input coordinate points: 201
 Counterclockwise ordering
 Max thickness =     0.120044  at x =   0.301
 Max camber    =     0.009527  at x =   0.422

  LE  x,y  =  -0.00002   0.00080  |   Chord =   1.00002
  TE  x,y  =   1.00000   0.00000  |

 Current airfoil nodes set from buffer airfoil nodes ( 201 )

 XFOIL   c>  
 Blunt trailing edge.  Gap =  0.00252

 Paneling parameters used...
   Number of panel nodes       160
   Panel bunching parameter    1.000
   TE/LE panel density ratio   0.150
   Refined-area/LE panel density ratio    0.200
   Top    side refined area x/c limits  1.000 1.000
   Bottom side refined area x/c limits  1.000 1.000

 XFOIL   c>  
.OPERi   c>  
 Polar  1 newly created for accumulation
 Airfoil archived with polar: NACA 1412                                       

Enter  polar save filename  OR  <return> for no file   s>  
 Old polar save file read in ...
  
       XFOIL                                                    Version 6.99
  
 Calculated polar for: NACA 1412                                       
  
 1 1 Reynolds number fixed          Mach number fixed         
  
 xtrf =   1.000 (top)        1.000 (bottom)  
 Mach =   0.000     Re =     0.000 e 6     Ncrit =   9.000  9.000
  
   alpha    CL        CD       CDp       CM     Top_Xtr  Bot_Xtr  Top_Itr  Bot_Itr
  ------ -------- --------- --------- -------- -------- -------- -------- --------
  -5.000  -0.4736   0.00000  -0.00109  -0.0210   0.0000   0.0000   0.0000   0.0000
  -4.500  -0.4133   0.00000  -0.00108  -0.0216   0.0000   0.0000   0.0000   0.0000
  -4.000  -0.3530   0.00000  -0.00108  -0.0223   0.0000   0.0000   0.0000   0.0000
  -3.500  -0.2926   0.00000  -0.00107  -0.0230   0.0000   0.0000   0.0000   0.0000
  -3.000  -0.2322   0.00000  -0.00107  -0.0237   0.0000   0.0000   0.0000   0.0000
  -2.500  -0.1719   0.00000  -0.00107  -0.0244   0.0000   0.0000   0.0000   0.0000
  -2.000  -0.1114   0.00000  -0.00107  -0.0251   0.0000   0.0000   0.0000   0.0000
  -1.500  -0.0510   0.00000  -0.00106  -0.0257   0.0000   0.0000   0.0000   0.0000
  -1.000   0.0094   0.00000  -0.00106  -0.0264   0.0000   0.0000   0.0000   0.0000
  -0.500   0.0698   0.00000  -0.00106  -0.0271   0.0000   0.0000   0.0000   0.0000
   0.000   0.1302   0.00000  -0.00106  -0.0279   0.0000   0.0000   0.0000   0.0000
   0.500   0.1906   0.00000  -0.00106  -0.0286   0.0000   0.0000   0.0000   0.0000
   1.000   0.2510   0.00000  -0.00107  -0.0293   0.0000   0.0000   0.0000   0.0000
   1.500   0.3114   0.00000  -0.00107  -0.0300   0.0000   0.0000   0.0000   0.0000
   2.000   0.3717   0.00000  -0.00107  -0.0307   0.0000   0.0000   0.0000   0.0000
   2.500   0.4320   0.00000  -0.00107  -0.0314   0.0000   0.0000   0.0000   0.0000
   3.000   0.4923   0.00000  -0.00108  -0.0321   0.0000   0.0000   0.0000   0.0000
   3.500   0.5526   0.00000  -0.00108  -0.0328   0.0000   0.0000   0.0000   0.0000
   4.000   0.6128   0.00000  -0.00109  -0.0335   0.0000   0.0000   0.0000   0.0000
   4.500   0.6729   0.00000  -0.00110  -0.0342   0.0000   0.0000   0.0000   0.0000
   5.000   0.7330   0.00000  -0.00110  -0.0350   0.0000   0.0000   0.0000   0.0000
   5.500   0.7931   0.00000  -0.00111  -0.0357   0.0000   0.0000   0.0000   0.0000
   6.000   0.8531   0.00000  -0.00112  -0.0364   0.0000   0.0000   0.0000   0.0000
   6.500   0.9130   0.00000  -0.00113  -0.0371   0.0000   0.0000   0.0000   0.0000
   7.000   0.9728   0.00000  -0.00114  -0.0378   0.0000   0.0000   0.0000   0.0000
   7.500   1.0326   0.00000  -0.00115  -0.0385   0.0000   0.0000   0.0000   0.0000
   8.000   1.0923   0.00000  -0.00116  -0.0392   0.0000   0.0000   0.0000   0.0000
   8.500   1.1519   0.00000  -0.00117  -0.0400   0.0000   0.0000   0.0000   0.0000
   9.000   1.2115   0.00000  -0.00118  -0.0407   0.0000   0.0000   0.0000   0.0000
   9.500   1.2709   0.00000  -0.00119  -0.0414   0.0000   0.0000   0.0000   0.0000
  10.000   1.3303   0.00000  -0.00121  -0.0421   0.0000   0.0000   0.0000   0.0000
  10.500   1.3895   0.00000  -0.00122  -0.0428   0.0000   0.0000   0.0000   0.0000
  11.000   1.4486   0.00000  -0.00123  -0.0435   0.0000   0.0000   0.0000   0.0000
  11.500   1.5077   0.00000  -0.00125  -0.0442   0.0000   0.0000   0.0000   0.0000
  12.000   1.5666   0.00000  -0.00126  -0.0449   0.0000   0.0000   0.0000   0.0000
  12.500   1.6254   0.00000  -0.00128  -0.0456   0.0000   0.0000   0.0000   0.0000
  13.000   1.6841   0.00000  -0.00129  -0.0463   0.0000   0.0000   0.0000   0.0000
  13.500   1.7426   0.00000  -0.00131  -0.0469   0.0000   0.0000   0.0000   0.0000
  14.000   1.8010   0.00000  -0.00133  -0.0476   0.0000   0.0000   0.0000   0.0000
  14.500   1.8593   0.00000  -0.00135  -0.0483   0.0000   0.0000   0.0000   0.0000
  15.000   1.9174   0.00000  -0.00136  -0.0490   0.0000   0.0000   0.0000   0.0000

 Old polar save file available for appending

Enter  polar dump filename  OR  <return> for no file   s>  
 Polar dump file will NOT be written

 Polar accumulation enabled

.OPERia   c>   Calculating unit vorticity distributions ...

 Point added to stored polar  1
 Point written to save file  CLi_NACA_1412.dat                               
 Dump file unspecified or not available

 Point added to stored polar  1
 Point written to save file  CLi_NACA_1412.dat                               
 Dump file unspecified or not available

 Point added to stored polar  1
 Point written to save file  CLi_NACA_1412.dat                               
 Dump file unspecified or not available

 Point added to stored polar  1
 Point written to save file  CLi_NACA_1412.dat                               
 Dump file unspecified or not available

 Point added to stored polar  1
 Point written to save file  CLi_NACA_1412.dat                               
 Dump file unspecified or not available

 Point added to stored polar  1
 Point written to save file  CLi_NACA_1412.dat                               
 Dump file unspecified or not available

 Point added to stored polar  1
 Point written to save file  CLi_NACA_1412.dat                               
 Dump file unspecified or not available

 Point added to stored polar  1
 Point written to save file  CLi_NACA_1412.dat                               
 Dump file unspecified or not available

 Point added to stored polar  1
 Point written to save file  CLi_NACA_1412.dat                               
 Dump file unspecified or not available

 Point added to stored polar  1
 Point written to save file  CLi_NACA_1412.dat                               
 Dump file unspecified or not available

 Point added to stored polar  1
 Point written to save file  CLi_NACA_1412.dat                               
 Dump file unspecified or not available

 Point added to stored polar  1
 Point written to save file  CLi_NACA_1412.dat                               
 Dump file unspecified or not available

 Point added to stored polar  1
 Point written to save file  CLi_NACA_1412.dat                               
 Dump file unspecified or not available

 Point added to stored polar  1
 Point written to save file  CLi_NACA_1412.dat                               
 Dump file unspecified or not available

 Point added to stored polar  1
 Point written to save file  CLi_NACA_1412.dat                               
 Dump file unspecified or not available

 Point added to stored polar  1
 Point written to save file  CLi_NACA_1412.dat                               
 Dump file unspecified or not available

 Point added to stored polar  1
 Point written to save file  CLi_NACA_1412.dat                               
 Dump file unspecified or not available

 Point added to stored polar  1
 Point written to save file  CLi_NACA_1412.dat                               
 Dump file unspecified or not available

 Point added to stored polar  1
 Point written to save file  CLi_NACA_1412.dat                               
 Dump file unspecified or not available

 Point added to stored polar  1
 Point written to save file  CLi_NACA_1412.dat                               
 Dump file unspecified or not available

 Point added to stored polar  1
 Point written to save file  CLi_NACA_1412.dat                               
 Dump file unspecified or not available

 Point added to stored polar  1
 Point written to save file  CLi_NACA_1412.dat                               
 Dump file unspecified or not available

 Point added to stored polar  1
 Point written to save file  CLi_NACA_1412.dat                               
 Dump file unspecified or not available

 Point added to stored polar  1
 Point written to save file  CLi_NACA_1412.dat                               
 Dump file unspecified or not available

 Point added to stored polar  1
 Point written to save file  CLi_NACA_1412.dat                               
 Dump file unspecified or not available

 Point added to stored polar  1
 Point written to save file  CLi_NACA_1412.dat                               
 Dump file unspecified or not available

 Point added to stored polar  1
 Point written to save file  CLi_NACA_1412.dat                               
 Dump file unspecified or not available

 Point added to stored polar  1
 Point written to save file  CLi_NACA_1412.dat                               
 Dump file unspecified or not available

 Point added to stored polar  1
 Point written to save file  CLi_NACA_1412.dat                               
 Dump file unspecified or not available

 Point added to stored polar  1
 Point written to save file  CLi_NACA_1412.dat                               
 Dump file unspecified or not available

 Point added to stored polar  1
 Point written to save file  CLi_NACA_1412.dat                               
 Dump file unspecified or not available

 Point added to stored polar  1
 Point written to save file  CLi_NACA_1412.dat                               
 Dump file unspecified or not available

 Point added to stored polar  1
 Point written to save file  CLi_NACA_1412.dat                               
 Dump file unspecified or not available

 Point added to stored polar  1
 Point written to save file  CLi_NACA_1412.dat                               
 Dump file unspecified or not available

 Point added to stored polar  1
 Point written to save file  CLi_NACA_1412.dat                               
 Dump file unspecified or not available

 Point added to stored polar  1
 Point written to save file  CLi_NACA_1412.dat                               
 Dump file unspecified or not available

 Point added to stored polar  1
 Point written to save file  CLi_NACA_1412.dat                               
 Dump file unspecified or not available

 Point added to stored polar  1
 Point written to save file  CLi_NACA_1412.dat                               
 Dump file unspecified or not available

 Point added to stored polar  1
 Point written to save file  CLi_NACA_1412.dat                               
 Dump file unspecified or not available

 Point added to stored polar  1
 Point written to save file  CLi_NACA_1412.dat                               
 Dump file unspecified or not available

 Point added to stored polar  1
 Point written to save file  CLi_NACA_1412.dat                               
 Dump file unspecified or not available

.OPERia   c>  
 Polar accumulation disabled

.OPERi   c>  
 XFOIL   c>  
 ===================================================
  XFOIL Version 6.99
  Copyright (C) 2000   Mark Drela, Harold Youngren

  This software comes with ABSOLUTELY NO WARRANTY,
    subject to the GNU General Public License.

  Caveat computor
 ===================================================

 File  xfoil.def  not found

   QUIT    Exit program

  .OPER    Direct operating point(s)
  .MDES    Complex mapping design routine
  .QDES    Surface speed design routine
  .GDES    Geometry design routine

   SAVE f  Write airfoil to labeled coordinate file
   PSAV f  Write airfoil to plain coordinate file
   ISAV f  Write airfoil to ISES coordinate file
   MSAV f  Write airfoil to MSES coordinate file
   REVE    Reverse written-airfoil node ordering
   DELI i  Change written-airfoil file delimiters

   LOAD f  Read buffer airfoil from coordinate file
   NACA i  Set NACA 4,5-digit airfoil and buffer airfoil
   INTE    Set buffer airfoil by interpolating two airfoils
   NORM    Buffer airfoil normalization toggle
   HALF    Halve the number of points in buffer airfoil
   XYCM rr Change CM reference location, currently  0.25000 0.00000

   BEND    Display structural properties of current airfoil

   PCOP    Set current-airfoil panel nodes directly from buffer airfoil points
   PANE    Set current-airfoil panel nodes ( 160 ) based on curvature
  .PPAR    Show/change paneling

  .PLOP    Plotting options

   WDEF f  Write  current-settings file
   RDEF f  Reread current-settings file
   NAME s  Specify new airfoil name
   NINC    Increment name version number

   Z       Zoom    | (available in all menus)
   U       Unzoom  | 

 XFOIL   c>  
 Labeled airfoil file.  Name:  NACA 2212                                       

 Number of input coordinate points: 201
 Counterclockwise ordering
 Max thickness =     0.120034  at x =   0.301
 Max camber    =     0.017615  at x =   0.246

  LE  x,y  =  -0.00030   0.00308  |   Chord =   1.00030
  TE  x,y  =   1.00000   0.00000  |

 Current airfoil nodes set from buffer airfoil nodes ( 201 )

 XFOIL   c>  
 Blunt trailing edge.  Gap =  0.00252

 Paneling parameters used...
   Number of panel nodes       160
   Panel bunching parameter    1.000
   TE/LE panel density ratio   0.150
   Refined-area/LE panel density ratio    0.200
   Top    side refined area x/c limits  1.000 1.000
   Bottom side refined area x/c limits  1.000 1.000

 XFOIL   c>  
.OPERi   c>  
 Polar  1 newly created for accumulation
 Airfoil archived with polar: NACA 2212                                       

Enter  polar save filename  OR  <return> for no file   s>  
 Old polar save file read in ...
  
       XFOIL                                                    Version 6.99
  
 Calculated polar for: NACA 2212                                       
  
 1 1 Reynolds number fixed          Mach number fixed         
  
 xtrf =   1.000 (top)        1.000 (bottom)  
 Mach =   0.000     Re =     0.000 e 6     Ncrit =   9.000  9.000
  
   alpha    CL        CD       CDp       CM     Top_Xtr  Bot_Xtr  Top_Itr  Bot_Itr
  ------ -------- --------- --------- -------- -------- -------- -------- --------
  -5.000  -0.3762   0.00000  -0.00111  -0.0303   0.0000   0.0000   0.0000   0.0000
  -4.500  -0.3158   0.00000  -0.00110  -0.0309   0.0000   0.0000   0.0000   0.0000
  -4.000  -0.2554   0.00000  -0.00110  -0.0315   0.0000   0.0000   0.0000   0.0000
  -3.500  -0.1950   0.00000  -0.00109  -0.0321   0.0000   0.0000   0.0000   0.0000
  -3.000  -0.1345   0.00000  -0.00109  -0.0327   0.0000   0.0000   0.0000   0.0000
  -2.500  -0.0741   0.00000  -0.00108  -0.0334   0.0000   0.0000   0.0000   0.0000
  -2.000  -0.0136   0.00000  -0.00108  -0.0340   0.0000   0.0000   0.0000   0.0000
  -1.500   0.0469   0.00000  -0.00108  -0.0347   0.0000   0.0000   0.0000   0.0000
  -1.000   0.1074   0.00000  -0.00107  -0.0353   0.0000   0.0000   0.0000   0.0000
  -0.500   0.1678   0.00000  -0.00107  -0.0360   0.0000   0.0000   0.0000   0.0000
   0.000   0.2283   0.00000  -0.00107  -0.0367   0.0000   0.0000   0.0000   0.0000
   0.500   0.2887   0.00000  -0.00107  -0.0374   0.0000   0.0000   0.0000   0.0000
   1.000   0.3491   0.00000  -0.00107  -0.0381   0.0000   0.0000   0.0000   0.0000
   1.500   0.4095   0.00000  -0.00107  -0.0388   0.0000   0.0000   0.0000   0.0000
   2.000   0.4698   0.00000  -0.00108  -0.0396   0.0000   0.0000   0.0000   0.0000
   2.500   0.5302   0.00000  -0.00108  -0.0403   0.0000   0.0000   0.0000   0.0000
   3.000   0.5904   0.00000  -0.00108  -0.0411   0.0000   0.0000   0.0000   0.0000
   3.500   0.6507   0.00000  -0.00108  -0.0418   0.0000   0.0000   0.0000   0.0000
   4.000   0.7108   0.00000  -0.00109  -0.0426   0.0000   0.0000   0.0000   0.0000
   4.500   0.7710   0.00000  -0.00109  -0.0433   0.0000   0.0000   0.0000   0.0000
   5.000   0.8310   0.00000  -0.00110  -0.0441   0.0000   0.0000   0.0000   0.0000
   5.500   0.8910   0.00000  -0.00111  -0.0449   0.0000   0.0000   0.0000   0.0000
   6.000   0.9510   0.00000  -0.00111  -0.0457   0.0000   0.0000   0.0000   0.0000
   6.500   1.0108   0.00000  -0.00112  -0.0465   0.0000   0.0000   0.0000   0.0000
   7.000   1.0706   0.00000  -0.00113  -0.0473   0.0000   0.0000   0.0000   0.0000
   7.500   1.1303   0.00000  -0.00114  -0.0481   0.0000   0.0000   0.0000   0.0000
   8.000   1.1900   0.00000  -0.00115  -0.0489   0.0000   0.0000   0.0000   0.0000
   8.500   1.2495   0.00000  -0.00116  -0.0498   0.0000   0.0000   0.0000   0.0000
   9.000   1.3089   0.00000  -0.00117  -0.0506   0.0000   0.0000   0.0000   0.0000
   9.500   1.3683   0.00000  -0.00118  -0.0514   0.0000   0.0000   0.0000   0.0000
  10.000   1.4275   0.00000  -0.00119  -0.0523   0.0000   0.0000   0.0000   0.0000
  10.500   1.4866   0.00000  -0.00120  -0.0531   0.0000   0.0000   0.0000   0.0000
  11.000   1.5456   0.00000  -0.00122  -0.0540   0.0000   0.0000   0.0000   0.0000
  11.500   1.6045   0.00000  -0.00123  -0.0548   0.0000   0.0000   0.0000   0.0000
  12.000   1.6633   0.00000  -0.00125  -0.0557   0.0000   0.0000   0.0000   0.0000
  12.500   1.7219   0.00000  -0.00126  -0.0566   0.0000   0.0000   0.0000   0.0000
  13.000   1.7804   0.00000  -0.00128  -0.0574   0.0000   0.0000   0.0000   0.0000
  13.500   1.8388   0.00000  -0.00129  -0.0583   0.0000   0.0000   0.0000   0.0000
  14.000   1.8971   0.00000  -0.00131  -0.0592   0.0000   0.0000   0.0000   0.0000
  14.500   1.9552   0.00000  -0.00133  -0.0601   0.0000   0.0000   0.0000   0.0000
  15.000   2.0131   0.00000  -0.00134  -0.0609   0.0000   0.0000   0.0000   0.0000

 Old polar save file available for appending

Enter  polar dump filename  OR  <return> for no file   s>  
 Polar dump file will NOT be written

 Polar accumulation enabled

.OPERia   c>   Calculating unit vorticity distributions ...

 Point added to stored polar  1
 Point written to save file  CLi_NACA_2212.dat                               
 Dump file unspecified or not available

 Point added to stored polar  1
 Point written to save file  CLi_NACA_2212.dat                               
 Dump file unspecified or not available

 Point added to stored polar  1
 Point written to save file  CLi_NACA_2212.dat                               
 Dump file unspecified or not available

 Point added to stored polar  1
 Point written to save file  CLi_NACA_2212.dat                               
 Dump file unspecified or not available

 Point added to stored polar  1
 Point written to save file  CLi_NACA_2212.dat                               
 Dump file unspecified or not available

 Point added to stored polar  1
 Point written to save file  CLi_NACA_2212.dat                               
 Dump file unspecified or not available

 Point added to stored polar  1
 Point written to save file  CLi_NACA_2212.dat                               
 Dump file unspecified or not available

 Point added to stored polar  1
 Point written to save file  CLi_NACA_2212.dat                               
 Dump file unspecified or not available

 Point added to stored polar  1
 Point written to save file  CLi_NACA_2212.dat                               
 Dump file unspecified or not available

 Point added to stored polar  1
 Point written to save file  CLi_NACA_2212.dat                               
 Dump file unspecified or not available

 Point added to stored polar  1
 Point written to save file  CLi_NACA_2212.dat                               
 Dump file unspecified or not available

 Point added to stored polar  1
 Point written to save file  CLi_NACA_2212.dat                               
 Dump file unspecified or not available

 Point added to stored polar  1
 Point written to save file  CLi_NACA_2212.dat                               
 Dump file unspecified or not available

 Point added to stored polar  1
 Point written to save file  CLi_NACA_2212.dat                               
 Dump file unspecified or not available

 Point added to stored polar  1
 Point written to save file  CLi_NACA_2212.dat                               
 Dump file unspecified or not available

 Point added to stored polar  1
 Point written to save file  CLi_NACA_2212.dat                               
 Dump file unspecified or not available

 Point added to stored polar  1
 Point written to save file  CLi_NACA_2212.dat                               
 Dump file unspecified or not available

 Point added to stored polar  1
 Point written to save file  CLi_NACA_2212.dat                               
 Dump file unspecified or not available

 Point added to stored polar  1
 Point written to save file  CLi_NACA_2212.dat                               
 Dump file unspecified or not available

 Point added to stored polar  1
 Point written to save file  CLi_NACA_2212.dat                               
 Dump file unspecified or not available

 Point added to stored polar  1
 Point written to save file  CLi_NACA_2212.dat                               
 Dump file unspecified or not available

 Point added to stored polar  1
 Point written to save file  CLi_NACA_2212.dat                               
 Dump file unspecified or not available

 Point added to stored polar  1
 Point written to save file  CLi_NACA_2212.dat                               
 Dump file unspecified or not available

 Point added to stored polar  1
 Point written to save file  CLi_NACA_2212.dat                               
 Dump file unspecified or not available

 Point added to stored polar  1
 Point written to save file  CLi_NACA_2212.dat                               
 Dump file unspecified or not available

 Point added to stored polar  1
 Point written to save file  CLi_NACA_2212.dat                               
 Dump file unspecified or not available

 Point added to stored polar  1
 Point written to save file  CLi_NACA_2212.dat                               
 Dump file unspecified or not available

 Point added to stored polar  1
 Point written to save file  CLi_NACA_2212.dat                               
 Dump file unspecified or not available

 Point added to stored polar  1
 Point written to save file  CLi_NACA_2212.dat                               
 Dump file unspecified or not available

 Point added to stored polar  1
 Point written to save file  CLi_NACA_2212.dat                               
 Dump file unspecified or not available

 Point added to stored polar  1
 Point written to save file  CLi_NACA_2212.dat                               
 Dump file unspecified or not available

 Point added to stored polar  1
 Point written to save file  CLi_NACA_2212.dat                               
 Dump file unspecified or not available

 Point added to stored polar  1
 Point written to save file  CLi_NACA_2212.dat                               
 Dump file unspecified or not available

 Point added to stored polar  1
 Point written to save file  CLi_NACA_2212.dat                               
 Dump file unspecified or not available

 Point added to stored polar  1
 Point written to save file  CLi_NACA_2212.dat                               
 Dump file unspecified or not available

 Point added to stored polar  1
 Point written to save file  CLi_NACA_2212.dat                               
 Dump file unspecified or not available

 Point added to stored polar  1
 Point written to save file  CLi_NACA_2212.dat                               
 Dump file unspecified or not available

 Point added to stored polar  1
 Point written to save file  CLi_NACA_2212.dat                               
 Dump file unspecified or not available

 Point added to stored polar  1
 Point written to save file  CLi_NACA_2212.dat                               
 Dump file unspecified or not available

 Point added to stored polar  1
 Point written to save file  CLi_NACA_2212.dat                               
 Dump file unspecified or not available

 Point added to stored polar  1
 Point written to save file  CLi_NACA_2212.dat                               
 Dump file unspecified or not available

.OPERia   c>  
 Polar accumulation disabled

.OPERi   c>  
 XFOIL   c>  
 ===================================================
  XFOIL Version 6.99
  Copyright (C) 2000   Mark Drela, Harold Youngren

  This software comes with ABSOLUTELY NO WARRANTY,
    subject to the GNU General Public License.

  Caveat computor
 ===================================================

 File  xfoil.def  not found

   QUIT    Exit program

  .OPER    Direct operating point(s)
  .MDES    Complex mapping design routine
  .QDES    Surface speed design routine
  .GDES    Geometry design routine

   SAVE f  Write airfoil to labeled coordinate file
   PSAV f  Write airfoil to plain coordinate file
   ISAV f  Write airfoil to ISES coordinate file
   MSAV f  Write airfoil to MSES coordinate file
   REVE    Reverse written-airfoil node ordering
   DELI i  Change written-airfoil file delimiters

   LOAD f  Read buffer airfoil from coordinate file
   NACA i  Set NACA 4,5-digit airfoil and buffer airfoil
   INTE    Set buffer airfoil by interpolating two airfoils
   NORM    Buffer airfoil normalization toggle
   HALF    Halve the number of points in buffer airfoil
   XYCM rr Change CM reference location, currently  0.25000 0.00000

   BEND    Display structural properties of current airfoil

   PCOP    Set current-airfoil panel nodes directly from buffer airfoil points
   PANE    Set current-airfoil panel nodes ( 160 ) based on curvature
  .PPAR    Show/change paneling

  .PLOP    Plotting options

   WDEF f  Write  current-settings file
   RDEF f  Reread current-settings file
   NAME s  Specify new airfoil name
   NINC    Increment name version number

   Z       Zoom    | (available in all menus)
   U       Unzoom  | 

 XFOIL   c>  
 Labeled airfoil file.  Name:  NACA 2412                                       

 Number of input coordinate points: 201
 Counterclockwise ordering
 Max thickness =     0.120076  at x =   0.300
 Max camber    =     0.019058  at x =   0.422

  LE  x,y  =  -0.00008   0.00159  |   Chord =   1.00008
  TE  x,y  =   1.00000   0.00000  |

 Current airfoil nodes set from buffer airfoil nodes ( 201 )

 XFOIL   c>  
 Blunt trailing edge.  Gap =  0.00252

 Paneling parameters used...
   Number of panel nodes       160
   Panel bunching parameter    1.000
   TE/LE panel density ratio   0.150
   Refined-area/LE panel density ratio    0.200
   Top    side refined area x/c limits  1.000 1.000
   Bottom side refined area x/c limits  1.000 1.000

 XFOIL   c>  
.OPERi   c>  
 Polar  1 newly created for accumulation
 Airfoil archived with polar: NACA 2412                                       

Enter  polar save filename  OR  <return> for no file   s>  
 Old polar save file read in ...
  
       XFOIL                                                    Version 6.99
  
 Calculated polar for: NACA 2412                                       
  
 1 1 Reynolds number fixed          Mach number fixed         
  
 xtrf =   1.000 (top)        1.000 (bottom)  
 Mach =   0.000     Re =     0.000 e 6     Ncrit =   9.000  9.000
  
   alpha    CL        CD       CDp       CM     Top_Xtr  Bot_Xtr  Top_Itr  Bot_Itr
  ------ -------- --------- --------- -------- -------- -------- -------- --------
  -5.000  -0.3441   0.00000  -0.00109  -0.0487   0.0000   0.0000   0.0000   0.0000
  -4.500  -0.2837   0.00000  -0.00108  -0.0494   0.0000   0.0000   0.0000   0.0000
  -4.000  -0.2233   0.00000  -0.00108  -0.0501   0.0000   0.0000   0.0000   0.0000
  -3.500  -0.1629   0.00000  -0.00107  -0.0507   0.0000   0.0000   0.0000   0.0000
  -3.000  -0.1024   0.00000  -0.00107  -0.0514   0.0000   0.0000   0.0000   0.0000
  -2.500  -0.0420   0.00000  -0.00107  -0.0521   0.0000   0.0000   0.0000   0.0000
  -2.000   0.0185   0.00000  -0.00107  -0.0528   0.0000   0.0000   0.0000   0.0000
  -1.500   0.0789   0.00000  -0.00107  -0.0535   0.0000   0.0000   0.0000   0.0000
  -1.000   0.1394   0.00000  -0.00107  -0.0542   0.0000   0.0000   0.0000   0.0000
  -0.500   0.1998   0.00000  -0.00107  -0.0549   0.0000   0.0000   0.0000   0.0000
   0.000   0.2602   0.00000  -0.00107  -0.0557   0.0000   0.0000   0.0000   0.0000
   0.500   0.3206   0.00000  -0.00107  -0.0564   0.0000   0.0000   0.0000   0.0000
   1.000   0.3810   0.00000  -0.00107  -0.0571   0.0000   0.0000   0.0000   0.0000
   1.500   0.4414   0.00000  -0.00107  -0.0578   0.0000   0.0000   0.0000   0.0000
   2.000   0.5017   0.00000  -0.00108  -0.0586   0.0000   0.0000   0.0000   0.0000
   2.500   0.5619   0.00000  -0.00108  -0.0593   0.0000   0.0000   0.0000   0.0000
   3.000   0.6222   0.00000  -0.00109  -0.0600   0.0000   0.0000   0.0000   0.0000
   3.500   0.6824   0.00000  -0.00109  -0.0608   0.0000   0.0000   0.0000   0.0000
   4.000   0.7425   0.00000  -0.00110  -0.0615   0.0000   0.0000   0.0000   0.0000
   4.500   0.8026   0.00000  -0.00111  -0.0623   0.0000   0.0000   0.0000   0.0000
   5.000   0.8626   0.00000  -0.00111  -0.0630   0.0000   0.0000   0.0000   0.0000
   5.500   0.9225   0.00000  -0.00112  -0.0638   0.0000   0.0000   0.0000   0.0000
   6.000   0.9824   0.00000  -0.00113  -0.0645   0.0000   0.0000   0.0000   0.0000
   6.500   1.0422   0.00000  -0.00114  -0.0653   0.0000   0.0000   0.0000   0.0000
   7.000   1.1019   0.00000  -0.00115  -0.0660   0.0000   0.0000   0.0000   0.0000
   7.500   1.1616   0.00000  -0.00116  -0.0668   0.0000   0.0000   0.0000   0.0000
   8.000   1.2211   0.00000  -0.00117  -0.0676   0.0000   0.0000   0.0000   0.0000
   8.500   1.2806   0.00000  -0.00118  -0.0683   0.0000   0.0000   0.0000   0.0000
   9.000   1.3400   0.00000  -0.00119  -0.0691   0.0000   0.0000   0.0000   0.0000
   9.500   1.3992   0.00000  -0.00121  -0.0699   0.0000   0.0000   0.0000   0.0000
  10.000   1.4584   0.00000  -0.00122  -0.0706   0.0000   0.0000   0.0000   0.0000
  10.500   1.5174   0.00000  -0.00123  -0.0714   0.0000   0.0000   0.0000   0.0000
  11.000   1.5763   0.00000  -0.00125  -0.0721   0.0000   0.0000   0.0000   0.0000
  11.500   1.6352   0.00000  -0.00126  -0.0729   0.0000   0.0000   0.0000   0.0000
  12.000   1.6938   0.00000  -0.00128  -0.0737   0.0000   0.0000   0.0000   0.0000
  12.500   1.7524   0.00000  -0.00130  -0.0744   0.0000   0.0000   0.0000   0.0000
  13.000   1.8108   0.00000  -0.00131  -0.0752   0.0000   0.0000   0.0000   0.0000
  13.500   1.8691   0.00000  -0.00133  -0.0759   0.0000   0.0000   0.0000   0.0000
  14.000   1.9273   0.00000  -0.00135  -0.0767   0.0000   0.0000   0.0000   0.0000
  14.500   1.9853   0.00000  -0.00136  -0.0774   0.0000   0.0000   0.0000   0.0000
  15.000   2.0431   0.00000  -0.00138  -0.0782   0.0000   0.0000   0.0000   0.0000

 Old polar save file available for appending

Enter  polar dump filename  OR  <return> for no file   s>  
 Polar dump file will NOT be written

 Polar accumulation enabled

.OPERia   c>   Calculating unit vorticity distributions ...

 Point added to stored polar  1
 Point written to save file  CLi_NACA_2412.dat                               
 Dump file unspecified or not available

 Point added to stored polar  1
 Point written to save file  CLi_NACA_2412.dat                               
 Dump file unspecified or not available

 Point added to stored polar  1
 Point written to save file  CLi_NACA_2412.dat                               
 Dump file unspecified or not available

 Point added to stored polar  1
 Point written to save file  CLi_NACA_2412.dat                               
 Dump file unspecified or not available

 Point added to stored polar  1
 Point written to save file  CLi_NACA_2412.dat                               
 Dump file unspecified or not available

 Point added to stored polar  1
 Point written to save file  CLi_NACA_2412.dat                               
 Dump file unspecified or not available

 Point added to stored polar  1
 Point written to save file  CLi_NACA_2412.dat                               
 Dump file unspecified or not available

 Point added to stored polar  1
 Point written to save file  CLi_NACA_2412.dat                               
 Dump file unspecified or not available

 Point added to stored polar  1
 Point written to save file  CLi_NACA_2412.dat                               
 Dump file unspecified or not available

 Point added to stored polar  1
 Point written to save file  CLi_NACA_2412.dat                               
 Dump file unspecified or not available

 Point added to stored polar  1
 Point written to save file  CLi_NACA_2412.dat                               
 Dump file unspecified or not available

 Point added to stored polar  1
 Point written to save file  CLi_NACA_2412.dat                               
 Dump file unspecified or not available

 Point added to stored polar  1
 Point written to save file  CLi_NACA_2412.dat                               
 Dump file unspecified or not available

 Point added to stored polar  1
 Point written to save file  CLi_NACA_2412.dat                               
 Dump file unspecified or not available

 Point added to stored polar  1
 Point written to save file  CLi_NACA_2412.dat                               
 Dump file unspecified or not available

 Point added to stored polar  1
 Point written to save file  CLi_NACA_2412.dat                               
 Dump file unspecified or not available

 Point added to stored polar  1
 Point written to save file  CLi_NACA_2412.dat                               
 Dump file unspecified or not available

 Point added to stored polar  1
 Point written to save file  CLi_NACA_2412.dat                               
 Dump file unspecified or not available

 Point added to stored polar  1
 Point written to save file  CLi_NACA_2412.dat                               
 Dump file unspecified or not available

 Point added to stored polar  1
 Point written to save file  CLi_NACA_2412.dat                               
 Dump file unspecified or not available

 Point added to stored polar  1
 Point written to save file  CLi_NACA_2412.dat                               
 Dump file unspecified or not available

 Point added to stored polar  1
 Point written to save file  CLi_NACA_2412.dat                               
 Dump file unspecified or not available

 Point added to stored polar  1
 Point written to save file  CLi_NACA_2412.dat                               
 Dump file unspecified or not available

 Point added to stored polar  1
 Point written to save file  CLi_NACA_2412.dat                               
 Dump file unspecified or not available

 Point added to stored polar  1
 Point written to save file  CLi_NACA_2412.dat                               
 Dump file unspecified or not available

 Point added to stored polar  1
 Point written to save file  CLi_NACA_2412.dat                               
 Dump file unspecified or not available

 Point added to stored polar  1
 Point written to save file  CLi_NACA_2412.dat                               
 Dump file unspecified or not available

 Point added to stored polar  1
 Point written to save file  CLi_NACA_2412.dat                               
 Dump file unspecified or not available

 Point added to stored polar  1
 Point written to save file  CLi_NACA_2412.dat                               
 Dump file unspecified or not available

 Point added to stored polar  1
 Point written to save file  CLi_NACA_2412.dat                               
 Dump file unspecified or not available

 Point added to stored polar  1
[...]
  13.000   1.7449   0.00000  -0.00199  -0.0728   0.0000   0.0000   0.0000   0.0000
  13.500   1.8004   0.00000  -0.00209  -0.0731   0.0000   0.0000   0.0000   0.0000
  14.000   1.8558   0.00000  -0.00219  -0.0734   0.0000   0.0000   0.0000   0.0000
  14.500   1.9111   0.00000  -0.00230  -0.0737   0.0000   0.0000   0.0000   0.0000
  15.000   1.9662   0.00000  -0.00241  -0.0740   0.0000   0.0000   0.0000   0.0000

 Old polar save file available for appending

Enter  polar dump filename  OR  <return> for no file   s>  
 Polar dump file will NOT be written

 Polar accumulation enabled

.OPERia   c>   Calculating unit vorticity distributions ...

 Point added to stored polar  1
 Point written to save file  CLi_SYMM_2406.dat                               
 Dump file unspecified or not available

 Point added to stored polar  1
 Point written to save file  CLi_SYMM_2406.dat                               
 Dump file unspecified or not available

 Point added to stored polar  1
 Point written to save file  CLi_SYMM_2406.dat                               
 Dump file unspecified or not available

 Point added to stored polar  1
 Point written to save file  CLi_SYMM_2406.dat                               
 Dump file unspecified or not available

 Point added to stored polar  1
 Point written to save file  CLi_SYMM_2406.dat                               
 Dump file unspecified or not available

 Point added to stored polar  1
 Point written to save file  CLi_SYMM_2406.dat                               
 Dump file unspecified or not available

 Point added to stored polar  1
 Point written to save file  CLi_SYMM_2406.dat                               
 Dump file unspecified or not available

 Point added to stored polar  1
 Point written to save file  CLi_SYMM_2406.dat                               
 Dump file unspecified or not available

 Point added to stored polar  1
 Point written to save file  CLi_SYMM_2406.dat                               
 Dump file unspecified or not available

 Point added to stored polar  1
 Point written to save file  CLi_SYMM_2406.dat                               
 Dump file unspecified or not available

 Point added to stored polar  1
 Point written to save file  CLi_SYMM_2406.dat                               
 Dump file unspecified or not available

 Point added to stored polar  1
 Point written to save file  CLi_SYMM_2406.dat                               
 Dump file unspecified or not available

 Point added to stored polar  1
 Point written to save file  CLi_SYMM_2406.dat                               
 Dump file unspecified or not available

 Point added to stored polar  1
 Point written to save file  CLi_SYMM_2406.dat                               
 Dump file unspecified or not available

 Point added to stored polar  1
 Point written to save file  CLi_SYMM_2406.dat                               
 Dump file unspecified or not available

 Point added to stored polar  1
 Point written to save file  CLi_SYMM_2406.dat                               
 Dump file unspecified or not available

 Point added to stored polar  1
 Point written to save file  CLi_SYMM_2406.dat                               
 Dump file unspecified or not available

 Point added to stored polar  1
 Point written to save file  CLi_SYMM_2406.dat                               
 Dump file unspecified or not available

 Point added to stored polar  1
 Point written to save file  CLi_SYMM_2406.dat                               
 Dump file unspecified or not available

 Point added to stored polar  1
 Point written to save file  CLi_SYMM_2406.dat                               
 Dump file unspecified or not available

 Point added to stored polar  1
 Point written to save file  CLi_SYMM_2406.dat                               
 Dump file unspecified or not available

 Point added to stored polar  1
 Point written to save file  CLi_SYMM_2406.dat                               
 Dump file unspecified or not available

 Point added to stored polar  1
 Point written to save file  CLi_SYMM_2406.dat                               
 Dump file unspecified or not available

 Point added to stored polar  1
 Point written to save file  CLi_SYMM_2406.dat                               
 Dump file unspecified or not available

 Point added to stored polar  1
 Point written to save file  CLi_SYMM_2406.dat                               
 Dump file unspecified or not available

 Point added to stored polar  1
 Point written to save file  CLi_SYMM_2406.dat                               
 Dump file unspecified or not available

 Point added to stored polar  1
 Point written to save file  CLi_SYMM_2406.dat                               
 Dump file unspecified or not available

 Point added to stored polar  1
 Point written to save file  CLi_SYMM_2406.dat                               
 Dump file unspecified or not available

 Point added to stored polar  1
 Point written to save file  CLi_SYMM_2406.dat                               
 Dump file unspecified or not available

 Point added to stored polar  1
 Point written to save file  CLi_SYMM_2406.dat                               
 Dump file unspecified or not available

 Point added to stored polar  1
 Point written to save file  CLi_SYMM_2406.dat                               
 Dump file unspecified or not available

 Point added to stored polar  1
 Point written to save file  CLi_SYMM_2406.dat                               
 Dump file unspecified or not available

 Point added to stored polar  1
 Point written to save file  CLi_SYMM_2406.dat                               
 Dump file unspecified or not available

 Point added to stored polar  1
 Point written to save file  CLi_SYMM_2406.dat                               
 Dump file unspecified or not available

 Point added to stored polar  1
 Point written to save file  CLi_SYMM_2406.dat                               
 Dump file unspecified or not available

 Point added to stored polar  1
 Point written to save file  CLi_SYMM_2406.dat                               
 Dump file unspecified or not available

 Point added to stored polar  1
 Point written to save file  CLi_SYMM_2406.dat                               
 Dump file unspecified or not available

 Point added to stored polar  1
 Point written to save file  CLi_SYMM_2406.dat                               
 Dump file unspecified or not available

 Point added to stored polar  1
 Point written to save file  CLi_SYMM_2406.dat                               
 Dump file unspecified or not available

 Point added to stored polar  1
 Point written to save file  CLi_SYMM_2406.dat                               
 Dump file unspecified or not available

 Point added to stored polar  1
 Point written to save file  CLi_SYMM_2406.dat                               
 Dump file unspecified or not available

.OPERia   c>  
 Polar accumulation disabled

.OPERi   c>  
 XFOIL   c>  
 ===================================================
  XFOIL Version 6.99
  Copyright (C) 2000   Mark Drela, Harold Youngren

  This software comes with ABSOLUTELY NO WARRANTY,
    subject to the GNU General Public License.

  Caveat computor
 ===================================================

 File  xfoil.def  not found

   QUIT    Exit program

  .OPER    Direct operating point(s)
  .MDES    Complex mapping design routine
  .QDES    Surface speed design routine
  .GDES    Geometry design routine

   SAVE f  Write airfoil to labeled coordinate file
   PSAV f  Write airfoil to plain coordinate file
   ISAV f  Write airfoil to ISES coordinate file
   MSAV f  Write airfoil to MSES coordinate file
   REVE    Reverse written-airfoil node ordering
   DELI i  Change written-airfoil file delimiters

   LOAD f  Read buffer airfoil from coordinate file
   NACA i  Set NACA 4,5-digit airfoil and buffer airfoil
   INTE    Set buffer airfoil by interpolating two airfoils
   NORM    Buffer airfoil normalization toggle
   HALF    Halve the number of points in buffer airfoil
   XYCM rr Change CM reference location, currently  0.25000 0.00000

   BEND    Display structural properties of current airfoil

   PCOP    Set current-airfoil panel nodes directly from buffer airfoil points
   PANE    Set current-airfoil panel nodes ( 160 ) based on curvature
  .PPAR    Show/change paneling

  .PLOP    Plotting options

   WDEF f  Write  current-settings file
   RDEF f  Reread current-settings file
   NAME s  Specify new airfoil name
   NINC    Increment name version number

   Z       Zoom    | (available in all menus)
   U       Unzoom  | 

 XFOIL   c>  
 Labeled airfoil file.  Name:  SYMM 2412                                       

 Number of input coordinate points: 201
 Counterclockwise ordering
 Max thickness =     0.120100  at x =   0.299
 Max camber    =     0.019368  at x =   0.516

  LE  x,y  =  -0.00005   0.00127  |   Chord =   1.00005
  TE  x,y  =   1.00000   0.00000  |

 Current airfoil nodes set from buffer airfoil nodes ( 201 )

 XFOIL   c>  
 Blunt trailing edge.  Gap =  0.00252

 Paneling parameters used...
   Number of panel nodes       160
   Panel bunching parameter    1.000
   TE/LE panel density ratio   0.150
   Refined-area/LE panel density ratio    0.200
   Top    side refined area x/c limits  1.000 1.000
   Bottom side refined area x/c limits  1.000 1.000

 XFOIL   c>  
.OPERi   c>  
 Polar  1 newly created for accumulation
 Airfoil archived with polar: SYMM 2412                                       

Enter  polar save filename  OR  <return> for no file   s>  
 Old polar save file read in ...
  
       XFOIL                                                    Version 6.99
  
 Calculated polar for: SYMM 2412                                       
  
 1 1 Reynolds number fixed          Mach number fixed         
  
 xtrf =   1.000 (top)        1.000 (bottom)  
 Mach =   0.000     Re =     0.000 e 6     Ncrit =   9.000  9.000
  
   alpha    CL        CD       CDp       CM     Top_Xtr  Bot_Xtr  Top_Itr  Bot_Itr
  ------ -------- --------- --------- -------- -------- -------- -------- --------
  -5.000  -0.3192   0.00000  -0.00108  -0.0592   0.0000   0.0000   0.0000   0.0000
  -4.500  -0.2588   0.00000  -0.00108  -0.0599   0.0000   0.0000   0.0000   0.0000
  -4.000  -0.1984   0.00000  -0.00107  -0.0606   0.0000   0.0000   0.0000   0.0000
  -3.500  -0.1380   0.00000  -0.00107  -0.0613   0.0000   0.0000   0.0000   0.0000
  -3.000  -0.0775   0.00000  -0.00107  -0.0620   0.0000   0.0000   0.0000   0.0000
  -2.500  -0.0171   0.00000  -0.00107  -0.0627   0.0000   0.0000   0.0000   0.0000
  -2.000   0.0434   0.00000  -0.00107  -0.0634   0.0000   0.0000   0.0000   0.0000
  -1.500   0.1038   0.00000  -0.00107  -0.0642   0.0000   0.0000   0.0000   0.0000
  -1.000   0.1643   0.00000  -0.00107  -0.0649   0.0000   0.0000   0.0000   0.0000
  -0.500   0.2247   0.00000  -0.00107  -0.0656   0.0000   0.0000   0.0000   0.0000
   0.000   0.2851   0.00000  -0.00107  -0.0663   0.0000   0.0000   0.0000   0.0000
   0.500   0.3455   0.00000  -0.00107  -0.0671   0.0000   0.0000   0.0000   0.0000
   1.000   0.4059   0.00000  -0.00107  -0.0678   0.0000   0.0000   0.0000   0.0000
   1.500   0.4662   0.00000  -0.00108  -0.0685   0.0000   0.0000   0.0000   0.0000
   2.000   0.5265   0.00000  -0.00108  -0.0692   0.0000   0.0000   0.0000   0.0000
   2.500   0.5867   0.00000  -0.00109  -0.0700   0.0000   0.0000   0.0000   0.0000
   3.000   0.6469   0.00000  -0.00109  -0.0707   0.0000   0.0000   0.0000   0.0000
   3.500   0.7071   0.00000  -0.00110  -0.0714   0.0000   0.0000   0.0000   0.0000
   4.000   0.7672   0.00000  -0.00111  -0.0722   0.0000   0.0000   0.0000   0.0000
   4.500   0.8273   0.00000  -0.00111  -0.0729   0.0000   0.0000   0.0000   0.0000
   5.000   0.8872   0.00000  -0.00112  -0.0736   0.0000   0.0000   0.0000   0.0000
   5.500   0.9472   0.00000  -0.00113  -0.0744   0.0000   0.0000   0.0000   0.0000
   6.000   1.0070   0.00000  -0.00114  -0.0751   0.0000   0.0000   0.0000   0.0000
   6.500   1.0668   0.00000  -0.00115  -0.0758   0.0000   0.0000   0.0000   0.0000
   7.000   1.1265   0.00000  -0.00116  -0.0765   0.0000   0.0000   0.0000   0.0000
   7.500   1.1861   0.00000  -0.00117  -0.0773   0.0000   0.0000   0.0000   0.0000
   8.000   1.2456   0.00000  -0.00118  -0.0780   0.0000   0.0000   0.0000   0.0000
   8.500   1.3050   0.00000  -0.00120  -0.0787   0.0000   0.0000   0.0000   0.0000
   9.000   1.3643   0.00000  -0.00121  -0.0794   0.0000   0.0000   0.0000   0.0000
   9.500   1.4235   0.00000  -0.00122  -0.0802   0.0000   0.0000   0.0000   0.0000
  10.000   1.4827   0.00000  -0.00124  -0.0809   0.0000   0.0000   0.0000   0.0000
  10.500   1.5417   0.00000  -0.00125  -0.0816   0.0000   0.0000   0.0000   0.0000
  11.000   1.6005   0.00000  -0.00127  -0.0823   0.0000   0.0000   0.0000   0.0000
  11.500   1.6593   0.00000  -0.00128  -0.0830   0.0000   0.0000   0.0000   0.0000
  12.000   1.7179   0.00000  -0.00130  -0.0837   0.0000   0.0000   0.0000   0.0000
  12.500   1.7764   0.00000  -0.00131  -0.0844   0.0000   0.0000   0.0000   0.0000
  13.000   1.8348   0.00000  -0.00133  -0.0851   0.0000   0.0000   0.0000   0.0000
  13.500   1.8930   0.00000  -0.00135  -0.0858   0.0000   0.0000   0.0000   0.0000
  14.000   1.9511   0.00000  -0.00137  -0.0865   0.0000   0.0000   0.0000   0.0000
  14.500   2.0090   0.00000  -0.00138  -0.0872   0.0000   0.0000   0.0000   0.0000
  15.000   2.0668   0.00000  -0.00140  -0.0879   0.0000   0.0000   0.0000   0.0000

 Old polar save file available for appending

Enter  polar dump filename  OR  <return> for no file   s>  
 Polar dump file will NOT be written

 Polar accumulation enabled

.OPERia   c>   Calculating unit vorticity distributions ...

 Point added to stored polar  1
 Point written to save file  CLi_SYMM_2412.dat                               
 Dump file unspecified or not available

 Point added to stored polar  1
 Point written to save file  CLi_SYMM_2412.dat                               
 Dump file unspecified or not available

 Point added to stored polar  1
 Point written to save file  CLi_SYMM_2412.dat                               
 Dump file unspecified or not available

 Point added to stored polar  1
 Point written to save file  CLi_SYMM_2412.dat                               
 Dump file unspecified or not available

 Point added to stored polar  1
 Point written to save file  CLi_SYMM_2412.dat                               
 Dump file unspecified or not available

 Point added to stored polar  1
 Point written to save file  CLi_SYMM_2412.dat                               
 Dump file unspecified or not available

 Point added to stored polar  1
 Point written to save file  CLi_SYMM_2412.dat                               
 Dump file unspecified or not available

 Point added to stored polar  1
 Point written to save file  CLi_SYMM_2412.dat                               
 Dump file unspecified or not available

 Point added to stored polar  1
 Point written to save file  CLi_SYMM_2412.dat                               
 Dump file unspecified or not available

 Point added to stored polar  1
 Point written to save file  CLi_SYMM_2412.dat                               
 Dump file unspecified or not available

 Point added to stored polar  1
 Point written to save file  CLi_SYMM_2412.dat                               
 Dump file unspecified or not available

 Point added to stored polar  1
 Point written to save file  CLi_SYMM_2412.dat                               
 Dump file unspecified or not available

 Point added to stored polar  1
 Point written to save file  CLi_SYMM_2412.dat                               
 Dump file unspecified or not available

 Point added to stored polar  1
 Point written to save file  CLi_SYMM_2412.dat                               
 Dump file unspecified or not available

 Point added to stored polar  1
 Point written to save file  CLi_SYMM_2412.dat                               
 Dump file unspecified or not available

 Point added to stored polar  1
 Point written to save file  CLi_SYMM_2412.dat                               
 Dump file unspecified or not available

 Point added to stored polar  1
 Point written to save file  CLi_SYMM_2412.dat                               
 Dump file unspecified or not available

 Point added to stored polar  1
 Point written to save file  CLi_SYMM_2412.dat                               
 Dump file unspecified or not available

 Point added to stored polar  1
 Point written to save file  CLi_SYMM_2412.dat                               
 Dump file unspecified or not available

 Point added to stored polar  1
 Point written to save file  CLi_SYMM_2412.dat                               
 Dump file unspecified or not available

 Point added to stored polar  1
 Point written to save file  CLi_SYMM_2412.dat                               
 Dump file unspecified or not available

 Point added to stored polar  1
 Point written to save file  CLi_SYMM_2412.dat                               
 Dump file unspecified or not available

 Point added to stored polar  1
 Point written to save file  CLi_SYMM_2412.dat                               
 Dump file unspecified or not available

 Point added to stored polar  1
 Point written to save file  CLi_SYMM_2412.dat                               
 Dump file unspecified or not available

 Point added to stored polar  1
 Point written to save file  CLi_SYMM_2412.dat                               
 Dump file unspecified or not available

 Point added to stored polar  1
 Point written to save file  CLi_SYMM_2412.dat                               
 Dump file unspecified or not available

 Point added to stored polar  1
 Point written to save file  CLi_SYMM_2412.dat                               
 Dump file unspecified or not available

 Point added to stored polar  1
 Point written to save file  CLi_SYMM_2412.dat                               
 Dump file unspecified or not available

 Point added to stored polar  1
 Point written to save file  CLi_SYMM_2412.dat                               
 Dump file unspecified or not available

 Point added to stored polar  1
 Point written to save file  CLi_SYMM_2412.dat                               
 Dump file unspecified or not available

 Point added to stored polar  1
 Point written to save file  CLi_SYMM_2412.dat                               
 Dump file unspecified or not available

 Point added to stored polar  1
 Point written to save file  CLi_SYMM_2412.dat                               
 Dump file unspecified or not available

 Point added to stored polar  1
 Point written to save file  CLi_SYMM_2412.dat                               
 Dump file unspecified or not available

 Point added to stored polar  1
 Point written to save file  CLi_SYMM_2412.dat                               
 Dump file unspecified or not available

 Point added to stored polar  1
 Point written to save file  CLi_SYMM_2412.dat                               
 Dump file unspecified or not available

 Point added to stored polar  1
 Point written to save file  CLi_SYMM_2412.dat                               
 Dump file unspecified or not available

 Point added to stored polar  1
 Point written to save file  CLi_SYMM_2412.dat                               
 Dump file unspecified or not available

 Point added to stored polar  1
 Point written to save file  CLi_SYMM_2412.dat                               
 Dump file unspecified or not available

 Point added to stored polar  1
 Point written to save file  CLi_SYMM_2412.dat                               
 Dump file unspecified or not available

 Point added to stored polar  1
 Point written to save file  CLi_SYMM_2412.dat                               
 Dump file unspecified or not available

 Point added to stored polar  1
 Point written to save file  CLi_SYMM_2412.dat                               
 Dump file unspecified or not available

.OPERia   c>  
 Polar accumulation disabled

.OPERi   c>  
 XFOIL   c>  